*SPEF "ieee 1481-1999"
*DESIGN "user_proj_example"
*DATE "11:11:11 Fri 11 11, 1111"
*VENDOR "OpenRCX"
*PROGRAM "Parallel Extraction"
*VERSION "1.0"
*DESIGN_FLOW "NAME_SCOPE LOCAL" "PIN_CAP NONE"
*DIVIDER /
*DELIMITER :
*BUS_DELIMITER []
*T_UNIT 1 NS
*C_UNIT 1 PF
*R_UNIT 1 OHM
*L_UNIT 1 HENRY

*NAME_MAP
*1 io_in[0]
*2 io_in[10]
*3 io_in[11]
*4 io_in[12]
*5 io_in[13]
*6 io_in[14]
*7 io_in[15]
*8 io_in[16]
*9 io_in[17]
*10 io_in[18]
*11 io_in[19]
*12 io_in[1]
*13 io_in[20]
*14 io_in[21]
*15 io_in[22]
*16 io_in[23]
*17 io_in[24]
*18 io_in[25]
*19 io_in[26]
*20 io_in[27]
*21 io_in[28]
*22 io_in[29]
*23 io_in[2]
*24 io_in[30]
*25 io_in[31]
*26 io_in[32]
*27 io_in[33]
*28 io_in[34]
*29 io_in[35]
*30 io_in[36]
*31 io_in[37]
*32 io_in[3]
*33 io_in[4]
*34 io_in[5]
*35 io_in[6]
*36 io_in[7]
*37 io_in[8]
*38 io_in[9]
*39 io_oeb[0]
*40 io_oeb[10]
*41 io_oeb[11]
*42 io_oeb[12]
*43 io_oeb[13]
*44 io_oeb[14]
*45 io_oeb[15]
*46 io_oeb[16]
*47 io_oeb[17]
*48 io_oeb[18]
*49 io_oeb[19]
*50 io_oeb[1]
*51 io_oeb[20]
*52 io_oeb[21]
*53 io_oeb[22]
*54 io_oeb[23]
*55 io_oeb[24]
*56 io_oeb[25]
*57 io_oeb[26]
*58 io_oeb[27]
*59 io_oeb[28]
*60 io_oeb[29]
*61 io_oeb[2]
*62 io_oeb[30]
*63 io_oeb[31]
*64 io_oeb[32]
*65 io_oeb[33]
*66 io_oeb[34]
*67 io_oeb[35]
*68 io_oeb[36]
*69 net221
*70 io_oeb[3]
*71 io_oeb[4]
*72 io_oeb[5]
*73 io_oeb[6]
*74 io_oeb[7]
*75 io_oeb[8]
*76 io_oeb[9]
*77 io_out[0]
*78 net193
*79 net194
*80 net195
*81 net196
*82 net197
*83 net198
*84 net199
*85 net200
*86 net201
*87 net202
*88 net184
*89 net203
*90 net204
*91 net205
*92 net206
*93 net207
*94 net208
*95 net209
*96 net210
*97 net211
*98 net212
*99 net185
*100 net213
*101 net214
*102 net215
*103 net216
*104 net217
*105 net218
*106 net219
*107 net220
*108 net186
*109 net187
*110 net188
*111 net189
*112 net190
*113 net191
*114 net192
*115 net181
*116 net182
*117 net183
*118 la_data_in[0]
*119 la_data_in[100]
*120 la_data_in[101]
*121 la_data_in[102]
*122 la_data_in[103]
*123 la_data_in[104]
*124 la_data_in[105]
*125 la_data_in[106]
*126 la_data_in[107]
*127 la_data_in[108]
*128 la_data_in[109]
*129 la_data_in[10]
*130 la_data_in[110]
*131 la_data_in[111]
*132 la_data_in[112]
*133 la_data_in[113]
*134 la_data_in[114]
*135 la_data_in[115]
*136 la_data_in[116]
*137 la_data_in[117]
*138 la_data_in[118]
*139 la_data_in[119]
*140 la_data_in[11]
*141 la_data_in[120]
*142 la_data_in[121]
*143 la_data_in[122]
*144 la_data_in[123]
*145 la_data_in[124]
*146 la_data_in[125]
*147 la_data_in[126]
*148 la_data_in[127]
*149 la_data_in[12]
*150 la_data_in[13]
*151 la_data_in[14]
*152 la_data_in[15]
*153 la_data_in[16]
*154 la_data_in[17]
*155 la_data_in[18]
*156 la_data_in[19]
*157 la_data_in[1]
*158 la_data_in[20]
*159 la_data_in[21]
*160 la_data_in[22]
*161 la_data_in[23]
*162 la_data_in[24]
*163 la_data_in[25]
*164 la_data_in[26]
*165 la_data_in[27]
*166 la_data_in[28]
*167 la_data_in[29]
*168 la_data_in[2]
*169 la_data_in[30]
*170 la_data_in[31]
*171 la_data_in[32]
*172 la_data_in[33]
*173 la_data_in[34]
*174 la_data_in[35]
*175 la_data_in[36]
*176 la_data_in[37]
*177 la_data_in[38]
*178 la_data_in[39]
*179 la_data_in[3]
*180 la_data_in[40]
*181 la_data_in[41]
*182 la_data_in[42]
*183 la_data_in[43]
*184 la_data_in[44]
*185 la_data_in[45]
*186 la_data_in[46]
*187 la_data_in[47]
*188 la_data_in[48]
*189 la_data_in[49]
*190 la_data_in[4]
*191 la_data_in[50]
*192 la_data_in[51]
*193 la_data_in[52]
*194 la_data_in[53]
*195 la_data_in[54]
*196 la_data_in[55]
*197 la_data_in[56]
*198 la_data_in[57]
*199 la_data_in[58]
*200 la_data_in[59]
*201 la_data_in[5]
*202 la_data_in[60]
*203 la_data_in[61]
*204 la_data_in[62]
*205 la_data_in[63]
*206 la_data_in[64]
*207 la_data_in[65]
*208 la_data_in[66]
*209 la_data_in[67]
*210 la_data_in[68]
*211 la_data_in[69]
*212 la_data_in[6]
*213 la_data_in[70]
*214 la_data_in[71]
*215 la_data_in[72]
*216 la_data_in[73]
*217 la_data_in[74]
*218 la_data_in[75]
*219 la_data_in[76]
*220 la_data_in[77]
*221 la_data_in[78]
*222 la_data_in[79]
*223 la_data_in[7]
*224 la_data_in[80]
*225 la_data_in[81]
*226 la_data_in[82]
*227 la_data_in[83]
*228 la_data_in[84]
*229 la_data_in[85]
*230 la_data_in[86]
*231 la_data_in[87]
*232 la_data_in[88]
*233 la_data_in[89]
*234 la_data_in[8]
*235 la_data_in[90]
*236 la_data_in[91]
*237 la_data_in[92]
*238 la_data_in[93]
*239 la_data_in[94]
*240 la_data_in[95]
*241 la_data_in[96]
*242 la_data_in[97]
*243 la_data_in[98]
*244 la_data_in[99]
*245 la_data_in[9]
*246 la_data_out[0]
*247 net153
*248 net154
*249 net155
*250 net156
*251 net157
*252 net158
*253 net159
*254 net160
*255 net161
*256 net162
*257 net63
*258 net163
*259 net164
*260 net165
*261 net166
*262 net167
*263 net168
*264 net169
*265 net170
*266 net171
*267 net172
*268 net64
*269 net173
*270 net174
*271 net175
*272 net176
*273 net177
*274 net178
*275 net179
*276 net180
*277 net65
*278 net66
*279 net67
*280 net68
*281 net69
*282 net70
*283 net71
*284 net72
*285 net255
*286 net73
*287 net74
*288 net75
*289 net76
*290 net77
*291 net78
*292 net79
*293 net80
*294 net81
*295 net82
*296 net256
*297 net83
*298 net84
*299 net85
*300 net86
*301 net87
*302 net88
*303 net89
*304 net90
*305 net91
*306 net92
*307 net257
*308 net93
*309 net94
*310 net95
*311 net96
*312 net97
*313 net98
*314 net99
*315 net100
*316 net101
*317 net102
*318 net57
*319 net103
*320 net104
*321 net105
*322 net106
*323 net107
*324 net108
*325 net109
*326 net110
*327 net111
*328 net112
*329 net58
*330 net113
*331 net114
*332 net115
*333 net116
*334 net117
*335 net118
*336 net119
*337 net120
*338 net121
*339 net122
*340 net59
*341 net123
*342 net124
*343 net125
*344 net126
*345 net127
*346 net128
*347 net129
*348 net130
*349 net131
*350 net132
*351 net60
*352 net133
*353 net134
*354 net135
*355 net136
*356 net137
*357 net138
*358 net139
*359 net140
*360 net141
*361 net142
*362 net61
*363 net143
*364 net144
*365 net145
*366 net146
*367 net147
*368 net148
*369 net149
*370 net150
*371 net151
*372 net152
*373 net62
*374 la_oenb[0]
*375 la_oenb[100]
*376 la_oenb[101]
*377 la_oenb[102]
*378 la_oenb[103]
*379 la_oenb[104]
*380 la_oenb[105]
*381 la_oenb[106]
*382 la_oenb[107]
*383 la_oenb[108]
*384 la_oenb[109]
*385 la_oenb[10]
*386 la_oenb[110]
*387 la_oenb[111]
*388 la_oenb[112]
*389 la_oenb[113]
*390 la_oenb[114]
*391 la_oenb[115]
*392 la_oenb[116]
*393 la_oenb[117]
*394 la_oenb[118]
*395 la_oenb[119]
*396 la_oenb[11]
*397 la_oenb[120]
*398 la_oenb[121]
*399 la_oenb[122]
*400 la_oenb[123]
*401 la_oenb[124]
*402 la_oenb[125]
*403 la_oenb[126]
*404 la_oenb[127]
*405 la_oenb[12]
*406 la_oenb[13]
*407 la_oenb[14]
*408 la_oenb[15]
*409 la_oenb[16]
*410 la_oenb[17]
*411 la_oenb[18]
*412 la_oenb[19]
*413 la_oenb[1]
*414 la_oenb[20]
*415 la_oenb[21]
*416 la_oenb[22]
*417 la_oenb[23]
*418 la_oenb[24]
*419 la_oenb[25]
*420 la_oenb[26]
*421 la_oenb[27]
*422 la_oenb[28]
*423 la_oenb[29]
*424 la_oenb[2]
*425 la_oenb[30]
*426 la_oenb[31]
*427 la_oenb[32]
*428 la_oenb[33]
*429 la_oenb[34]
*430 la_oenb[35]
*431 la_oenb[36]
*432 la_oenb[37]
*433 la_oenb[38]
*434 la_oenb[39]
*435 la_oenb[3]
*436 la_oenb[40]
*437 la_oenb[41]
*438 la_oenb[42]
*439 la_oenb[43]
*440 la_oenb[44]
*441 la_oenb[45]
*442 la_oenb[46]
*443 la_oenb[47]
*444 la_oenb[48]
*445 la_oenb[49]
*446 la_oenb[4]
*447 la_oenb[50]
*448 la_oenb[51]
*449 la_oenb[52]
*450 la_oenb[53]
*451 la_oenb[54]
*452 la_oenb[55]
*453 la_oenb[56]
*454 la_oenb[57]
*455 la_oenb[58]
*456 la_oenb[59]
*457 la_oenb[5]
*458 la_oenb[60]
*459 la_oenb[61]
*460 la_oenb[62]
*461 la_oenb[63]
*462 la_oenb[64]
*463 la_oenb[65]
*464 la_oenb[66]
*465 la_oenb[67]
*466 la_oenb[68]
*467 la_oenb[69]
*468 la_oenb[6]
*469 la_oenb[70]
*470 la_oenb[71]
*471 la_oenb[72]
*472 la_oenb[73]
*473 la_oenb[74]
*474 la_oenb[75]
*475 la_oenb[76]
*476 la_oenb[77]
*477 la_oenb[78]
*478 la_oenb[79]
*479 la_oenb[7]
*480 la_oenb[80]
*481 la_oenb[81]
*482 la_oenb[82]
*483 la_oenb[83]
*484 la_oenb[84]
*485 la_oenb[85]
*486 la_oenb[86]
*487 la_oenb[87]
*488 la_oenb[88]
*489 la_oenb[89]
*490 la_oenb[8]
*491 la_oenb[90]
*492 la_oenb[91]
*493 la_oenb[92]
*494 la_oenb[93]
*495 la_oenb[94]
*496 la_oenb[95]
*497 la_oenb[96]
*498 la_oenb[97]
*499 la_oenb[98]
*500 la_oenb[99]
*501 la_oenb[9]
*504 wb_clk_i
*505 wb_rst_i
*506 net222
*507 wbs_adr_i[0]
*508 wbs_adr_i[10]
*509 wbs_adr_i[11]
*510 wbs_adr_i[12]
*511 wbs_adr_i[13]
*512 wbs_adr_i[14]
*513 wbs_adr_i[15]
*514 wbs_adr_i[16]
*515 wbs_adr_i[17]
*516 wbs_adr_i[18]
*517 wbs_adr_i[19]
*518 wbs_adr_i[1]
*519 wbs_adr_i[20]
*520 wbs_adr_i[21]
*521 wbs_adr_i[22]
*522 wbs_adr_i[23]
*523 wbs_adr_i[24]
*524 wbs_adr_i[25]
*525 wbs_adr_i[26]
*526 wbs_adr_i[27]
*527 wbs_adr_i[28]
*528 wbs_adr_i[29]
*529 wbs_adr_i[2]
*530 wbs_adr_i[30]
*531 wbs_adr_i[31]
*532 wbs_adr_i[3]
*533 wbs_adr_i[4]
*534 wbs_adr_i[5]
*535 wbs_adr_i[6]
*536 wbs_adr_i[7]
*537 wbs_adr_i[8]
*538 wbs_adr_i[9]
*539 wbs_cyc_i
*540 wbs_dat_i[0]
*541 wbs_dat_i[10]
*542 wbs_dat_i[11]
*543 wbs_dat_i[12]
*544 wbs_dat_i[13]
*545 wbs_dat_i[14]
*546 wbs_dat_i[15]
*547 wbs_dat_i[16]
*548 wbs_dat_i[17]
*549 wbs_dat_i[18]
*550 wbs_dat_i[19]
*551 wbs_dat_i[1]
*552 wbs_dat_i[20]
*553 wbs_dat_i[21]
*554 wbs_dat_i[22]
*555 wbs_dat_i[23]
*556 wbs_dat_i[24]
*557 wbs_dat_i[25]
*558 wbs_dat_i[26]
*559 wbs_dat_i[27]
*560 wbs_dat_i[28]
*561 wbs_dat_i[29]
*562 wbs_dat_i[2]
*563 wbs_dat_i[30]
*564 wbs_dat_i[31]
*565 wbs_dat_i[3]
*566 wbs_dat_i[4]
*567 wbs_dat_i[5]
*568 wbs_dat_i[6]
*569 wbs_dat_i[7]
*570 wbs_dat_i[8]
*571 wbs_dat_i[9]
*572 net223
*573 net233
*574 net234
*575 net235
*576 net236
*577 net237
*578 net238
*579 net239
*580 net240
*581 net241
*582 net242
*583 net224
*584 net243
*585 net244
*586 net245
*587 net246
*588 net247
*589 net248
*590 net249
*591 net250
*592 net251
*593 net252
*594 net225
*595 net253
*596 net254
*597 net226
*598 net227
*599 net228
*600 net229
*601 net230
*602 net231
*603 net232
*604 wbs_sel_i[0]
*605 wbs_sel_i[1]
*606 wbs_sel_i[2]
*607 wbs_sel_i[3]
*608 wbs_stb_i
*609 wbs_we_i
*610 net1
*611 net10
*612 net11
*613 net12
*614 net13
*615 net14
*616 net15
*617 net16
*618 net17
*619 net18
*620 net19
*621 net2
*622 net20
*623 net21
*624 net22
*625 net23
*626 net24
*627 net25
*628 net26
*629 net27
*630 net28
*631 net29
*632 net3
*633 net30
*634 net31
*635 net32
*636 net33
*637 net34
*638 net35
*639 net36
*640 net37
*641 net38
*642 net39
*643 net4
*644 net40
*645 net41
*646 net42
*647 net43
*648 net44
*649 net45
*650 net46
*651 net47
*652 net48
*653 net49
*654 net5
*655 net50
*656 net51
*657 net52
*658 net53
*659 net54
*660 net55
*661 net56
*662 net6
*663 net7
*664 net8
*665 net9
*666 ring\.buffers_in\[0\]
*667 ring\.buffers_in\[100\]
*668 ring\.buffers_in\[101\]
*669 ring\.buffers_in\[102\]
*670 ring\.buffers_in\[103\]
*671 ring\.buffers_in\[104\]
*672 ring\.buffers_in\[105\]
*673 ring\.buffers_in\[106\]
*674 ring\.buffers_in\[107\]
*675 ring\.buffers_in\[108\]
*676 ring\.buffers_in\[109\]
*677 ring\.buffers_in\[10\]
*678 ring\.buffers_in\[110\]
*679 ring\.buffers_in\[111\]
*680 ring\.buffers_in\[112\]
*681 ring\.buffers_in\[113\]
*682 ring\.buffers_in\[114\]
*683 ring\.buffers_in\[115\]
*684 ring\.buffers_in\[116\]
*685 ring\.buffers_in\[117\]
*686 ring\.buffers_in\[118\]
*687 ring\.buffers_in\[119\]
*688 ring\.buffers_in\[11\]
*689 ring\.buffers_in\[120\]
*690 ring\.buffers_in\[121\]
*691 ring\.buffers_in\[122\]
*692 ring\.buffers_in\[123\]
*693 ring\.buffers_in\[124\]
*694 ring\.buffers_in\[125\]
*695 ring\.buffers_in\[126\]
*696 ring\.buffers_in\[127\]
*697 ring\.buffers_in\[128\]
*698 ring\.buffers_in\[129\]
*699 ring\.buffers_in\[12\]
*700 ring\.buffers_in\[130\]
*701 ring\.buffers_in\[131\]
*702 ring\.buffers_in\[132\]
*703 ring\.buffers_in\[133\]
*704 ring\.buffers_in\[134\]
*705 ring\.buffers_in\[135\]
*706 ring\.buffers_in\[136\]
*707 ring\.buffers_in\[137\]
*708 ring\.buffers_in\[138\]
*709 ring\.buffers_in\[139\]
*710 ring\.buffers_in\[13\]
*711 ring\.buffers_in\[140\]
*712 ring\.buffers_in\[141\]
*713 ring\.buffers_in\[142\]
*714 ring\.buffers_in\[143\]
*715 ring\.buffers_in\[144\]
*716 ring\.buffers_in\[145\]
*717 ring\.buffers_in\[146\]
*718 ring\.buffers_in\[147\]
*719 ring\.buffers_in\[148\]
*720 ring\.buffers_in\[149\]
*721 ring\.buffers_in\[14\]
*722 ring\.buffers_in\[150\]
*723 ring\.buffers_in\[151\]
*724 ring\.buffers_in\[152\]
*725 ring\.buffers_in\[153\]
*726 ring\.buffers_in\[154\]
*727 ring\.buffers_in\[15\]
*728 ring\.buffers_in\[16\]
*729 ring\.buffers_in\[17\]
*730 ring\.buffers_in\[18\]
*731 ring\.buffers_in\[19\]
*732 ring\.buffers_in\[1\]
*733 ring\.buffers_in\[20\]
*734 ring\.buffers_in\[21\]
*735 ring\.buffers_in\[22\]
*736 ring\.buffers_in\[23\]
*737 ring\.buffers_in\[24\]
*738 ring\.buffers_in\[25\]
*739 ring\.buffers_in\[26\]
*740 ring\.buffers_in\[27\]
*741 ring\.buffers_in\[28\]
*742 ring\.buffers_in\[29\]
*743 ring\.buffers_in\[2\]
*744 ring\.buffers_in\[30\]
*745 ring\.buffers_in\[31\]
*746 ring\.buffers_in\[32\]
*747 ring\.buffers_in\[33\]
*748 ring\.buffers_in\[34\]
*749 ring\.buffers_in\[35\]
*750 ring\.buffers_in\[36\]
*751 ring\.buffers_in\[37\]
*752 ring\.buffers_in\[38\]
*753 ring\.buffers_in\[39\]
*754 ring\.buffers_in\[3\]
*755 ring\.buffers_in\[40\]
*756 ring\.buffers_in\[41\]
*757 ring\.buffers_in\[42\]
*758 ring\.buffers_in\[43\]
*759 ring\.buffers_in\[44\]
*760 ring\.buffers_in\[45\]
*761 ring\.buffers_in\[46\]
*762 ring\.buffers_in\[47\]
*763 ring\.buffers_in\[48\]
*764 ring\.buffers_in\[49\]
*765 ring\.buffers_in\[4\]
*766 ring\.buffers_in\[50\]
*767 ring\.buffers_in\[51\]
*768 ring\.buffers_in\[52\]
*769 ring\.buffers_in\[53\]
*770 ring\.buffers_in\[54\]
*771 ring\.buffers_in\[55\]
*772 ring\.buffers_in\[56\]
*773 ring\.buffers_in\[57\]
*774 ring\.buffers_in\[58\]
*775 ring\.buffers_in\[59\]
*776 ring\.buffers_in\[5\]
*777 ring\.buffers_in\[60\]
*778 ring\.buffers_in\[61\]
*779 ring\.buffers_in\[62\]
*780 ring\.buffers_in\[63\]
*781 ring\.buffers_in\[64\]
*782 ring\.buffers_in\[65\]
*783 ring\.buffers_in\[66\]
*784 ring\.buffers_in\[67\]
*785 ring\.buffers_in\[68\]
*786 ring\.buffers_in\[69\]
*787 ring\.buffers_in\[6\]
*788 ring\.buffers_in\[70\]
*789 ring\.buffers_in\[71\]
*790 ring\.buffers_in\[72\]
*791 ring\.buffers_in\[73\]
*792 ring\.buffers_in\[74\]
*793 ring\.buffers_in\[75\]
*794 ring\.buffers_in\[76\]
*795 ring\.buffers_in\[77\]
*796 ring\.buffers_in\[78\]
*797 ring\.buffers_in\[79\]
*798 ring\.buffers_in\[7\]
*799 ring\.buffers_in\[80\]
*800 ring\.buffers_in\[81\]
*801 ring\.buffers_in\[82\]
*802 ring\.buffers_in\[83\]
*803 ring\.buffers_in\[84\]
*804 ring\.buffers_in\[85\]
*805 ring\.buffers_in\[86\]
*806 ring\.buffers_in\[87\]
*807 ring\.buffers_in\[88\]
*808 ring\.buffers_in\[89\]
*809 ring\.buffers_in\[8\]
*810 ring\.buffers_in\[90\]
*811 ring\.buffers_in\[91\]
*812 ring\.buffers_in\[92\]
*813 ring\.buffers_in\[93\]
*814 ring\.buffers_in\[94\]
*815 ring\.buffers_in\[95\]
*816 ring\.buffers_in\[96\]
*817 ring\.buffers_in\[97\]
*818 ring\.buffers_in\[98\]
*819 ring\.buffers_in\[99\]
*820 ring\.buffers_in\[9\]
*821 ring\.chain
*822 rst
*823 FILLER_0_1002
*824 FILLER_0_1012
*825 FILLER_0_102
*826 FILLER_0_1021
*827 FILLER_0_1030
*828 FILLER_0_1040
*829 FILLER_0_1049
*830 FILLER_0_1058
*831 FILLER_0_106
*832 FILLER_0_1068
*833 FILLER_0_1077
*834 FILLER_0_1086
*835 FILLER_0_1096
*836 FILLER_0_1105
*837 FILLER_0_1114
*838 FILLER_0_1124
*839 FILLER_0_1133
*840 FILLER_0_1142
*841 FILLER_0_1152
*842 FILLER_0_116
*843 FILLER_0_1161
*844 FILLER_0_1170
*845 FILLER_0_1180
*846 FILLER_0_1189
*847 FILLER_0_1198
*848 FILLER_0_1208
*849 FILLER_0_1217
*850 FILLER_0_1226
*851 FILLER_0_1236
*852 FILLER_0_1245
*853 FILLER_0_125
*854 FILLER_0_1254
*855 FILLER_0_1264
*856 FILLER_0_1276
*857 FILLER_0_134
*858 FILLER_0_141
*859 FILLER_0_147
*860 FILLER_0_151
*861 FILLER_0_162
*862 FILLER_0_17
*863 FILLER_0_172
*864 FILLER_0_181
*865 FILLER_0_190
*866 FILLER_0_197
*867 FILLER_0_203
*868 FILLER_0_207
*869 FILLER_0_218
*870 FILLER_0_22
*871 FILLER_0_228
*872 FILLER_0_237
*873 FILLER_0_246
*874 FILLER_0_256
*875 FILLER_0_265
*876 FILLER_0_274
*877 FILLER_0_281
*878 FILLER_0_293
*879 FILLER_0_302
*880 FILLER_0_312
*881 FILLER_0_32
*882 FILLER_0_321
*883 FILLER_0_330
*884 FILLER_0_337
*885 FILLER_0_343
*886 FILLER_0_347
*887 FILLER_0_358
*888 FILLER_0_368
*889 FILLER_0_377
*890 FILLER_0_386
*891 FILLER_0_396
*892 FILLER_0_405
*893 FILLER_0_41
*894 FILLER_0_414
*895 FILLER_0_424
*896 FILLER_0_433
*897 FILLER_0_442
*898 FILLER_0_452
*899 FILLER_0_461
*900 FILLER_0_470
*901 FILLER_0_480
*902 FILLER_0_489
*903 FILLER_0_498
*904 FILLER_0_50
*905 FILLER_0_508
*906 FILLER_0_517
*907 FILLER_0_526
*908 FILLER_0_536
*909 FILLER_0_545
*910 FILLER_0_554
*911 FILLER_0_564
*912 FILLER_0_573
*913 FILLER_0_582
*914 FILLER_0_592
*915 FILLER_0_60
*916 FILLER_0_601
*917 FILLER_0_610
*918 FILLER_0_620
*919 FILLER_0_629
*920 FILLER_0_638
*921 FILLER_0_645
*922 FILLER_0_656
*923 FILLER_0_665
*924 FILLER_0_671
*925 FILLER_0_676
*926 FILLER_0_685
*927 FILLER_0_69
*928 FILLER_0_694
*929 FILLER_0_704
*930 FILLER_0_713
*931 FILLER_0_722
*932 FILLER_0_732
*933 FILLER_0_741
*934 FILLER_0_750
*935 FILLER_0_760
*936 FILLER_0_769
*937 FILLER_0_778
*938 FILLER_0_78
*939 FILLER_0_785
*940 FILLER_0_794
*941 FILLER_0_803
*942 FILLER_0_811
*943 FILLER_0_816
*944 FILLER_0_825
*945 FILLER_0_834
*946 FILLER_0_844
*947 FILLER_0_85
*948 FILLER_0_853
*949 FILLER_0_862
*950 FILLER_0_872
*951 FILLER_0_881
*952 FILLER_0_890
*953 FILLER_0_9
*954 FILLER_0_900
*955 FILLER_0_909
*956 FILLER_0_918
*957 FILLER_0_928
*958 FILLER_0_937
*959 FILLER_0_946
*960 FILLER_0_956
*961 FILLER_0_96
*962 FILLER_0_965
*963 FILLER_0_974
*964 FILLER_0_984
*965 FILLER_0_993
*966 FILLER_100_1005
*967 FILLER_100_1017
*968 FILLER_100_1029
*969 FILLER_100_1035
*970 FILLER_100_1037
*971 FILLER_100_1049
*972 FILLER_100_1061
*973 FILLER_100_1073
*974 FILLER_100_1085
*975 FILLER_100_109
*976 FILLER_100_1091
*977 FILLER_100_1093
*978 FILLER_100_1105
*979 FILLER_100_1117
*980 FILLER_100_1129
*981 FILLER_100_1141
*982 FILLER_100_1147
*983 FILLER_100_1149
*984 FILLER_100_1161
*985 FILLER_100_1173
*986 FILLER_100_1185
*987 FILLER_100_1197
*988 FILLER_100_1203
*989 FILLER_100_1205
*990 FILLER_100_121
*991 FILLER_100_1217
*992 FILLER_100_1229
*993 FILLER_100_1241
*994 FILLER_100_1253
*995 FILLER_100_1259
*996 FILLER_100_1261
*997 FILLER_100_1273
*998 FILLER_100_133
*999 FILLER_100_139
*1000 FILLER_100_141
*1001 FILLER_100_15
*1002 FILLER_100_153
*1003 FILLER_100_165
*1004 FILLER_100_177
*1005 FILLER_100_189
*1006 FILLER_100_195
*1007 FILLER_100_197
*1008 FILLER_100_209
*1009 FILLER_100_221
*1010 FILLER_100_233
*1011 FILLER_100_245
*1012 FILLER_100_251
*1013 FILLER_100_253
*1014 FILLER_100_265
*1015 FILLER_100_27
*1016 FILLER_100_277
*1017 FILLER_100_289
*1018 FILLER_100_29
*1019 FILLER_100_3
*1020 FILLER_100_301
*1021 FILLER_100_307
*1022 FILLER_100_309
*1023 FILLER_100_321
*1024 FILLER_100_333
*1025 FILLER_100_345
*1026 FILLER_100_357
*1027 FILLER_100_363
*1028 FILLER_100_365
*1029 FILLER_100_377
*1030 FILLER_100_389
*1031 FILLER_100_401
*1032 FILLER_100_41
*1033 FILLER_100_413
*1034 FILLER_100_419
*1035 FILLER_100_421
*1036 FILLER_100_433
*1037 FILLER_100_445
*1038 FILLER_100_457
*1039 FILLER_100_469
*1040 FILLER_100_475
*1041 FILLER_100_477
*1042 FILLER_100_489
*1043 FILLER_100_501
*1044 FILLER_100_513
*1045 FILLER_100_525
*1046 FILLER_100_53
*1047 FILLER_100_531
*1048 FILLER_100_533
*1049 FILLER_100_545
*1050 FILLER_100_557
*1051 FILLER_100_569
*1052 FILLER_100_581
*1053 FILLER_100_587
*1054 FILLER_100_589
*1055 FILLER_100_601
*1056 FILLER_100_613
*1057 FILLER_100_625
*1058 FILLER_100_637
*1059 FILLER_100_643
*1060 FILLER_100_645
*1061 FILLER_100_65
*1062 FILLER_100_657
*1063 FILLER_100_669
*1064 FILLER_100_681
*1065 FILLER_100_693
*1066 FILLER_100_699
*1067 FILLER_100_701
*1068 FILLER_100_713
*1069 FILLER_100_725
*1070 FILLER_100_737
*1071 FILLER_100_749
*1072 FILLER_100_755
*1073 FILLER_100_757
*1074 FILLER_100_769
*1075 FILLER_100_77
*1076 FILLER_100_781
*1077 FILLER_100_793
*1078 FILLER_100_805
*1079 FILLER_100_811
*1080 FILLER_100_813
*1081 FILLER_100_825
*1082 FILLER_100_83
*1083 FILLER_100_837
*1084 FILLER_100_849
*1085 FILLER_100_85
*1086 FILLER_100_861
*1087 FILLER_100_867
*1088 FILLER_100_869
*1089 FILLER_100_881
*1090 FILLER_100_893
*1091 FILLER_100_905
*1092 FILLER_100_917
*1093 FILLER_100_923
*1094 FILLER_100_925
*1095 FILLER_100_937
*1096 FILLER_100_949
*1097 FILLER_100_961
*1098 FILLER_100_97
*1099 FILLER_100_973
*1100 FILLER_100_979
*1101 FILLER_100_981
*1102 FILLER_100_993
*1103 FILLER_101_1001
*1104 FILLER_101_1007
*1105 FILLER_101_1009
*1106 FILLER_101_1021
*1107 FILLER_101_1033
*1108 FILLER_101_1045
*1109 FILLER_101_105
*1110 FILLER_101_1057
*1111 FILLER_101_1063
*1112 FILLER_101_1065
*1113 FILLER_101_1077
*1114 FILLER_101_1089
*1115 FILLER_101_1101
*1116 FILLER_101_111
*1117 FILLER_101_1113
*1118 FILLER_101_1119
*1119 FILLER_101_1121
*1120 FILLER_101_113
*1121 FILLER_101_1133
*1122 FILLER_101_1145
*1123 FILLER_101_1157
*1124 FILLER_101_1169
*1125 FILLER_101_1175
*1126 FILLER_101_1177
*1127 FILLER_101_1189
*1128 FILLER_101_1201
*1129 FILLER_101_1213
*1130 FILLER_101_1225
*1131 FILLER_101_1231
*1132 FILLER_101_1233
*1133 FILLER_101_1245
*1134 FILLER_101_125
*1135 FILLER_101_1257
*1136 FILLER_101_1269
*1137 FILLER_101_137
*1138 FILLER_101_149
*1139 FILLER_101_15
*1140 FILLER_101_161
*1141 FILLER_101_167
*1142 FILLER_101_169
*1143 FILLER_101_181
*1144 FILLER_101_193
*1145 FILLER_101_205
*1146 FILLER_101_217
*1147 FILLER_101_223
*1148 FILLER_101_225
*1149 FILLER_101_237
*1150 FILLER_101_249
*1151 FILLER_101_261
*1152 FILLER_101_27
*1153 FILLER_101_273
*1154 FILLER_101_279
*1155 FILLER_101_281
*1156 FILLER_101_293
*1157 FILLER_101_3
*1158 FILLER_101_305
*1159 FILLER_101_317
*1160 FILLER_101_329
*1161 FILLER_101_335
*1162 FILLER_101_337
*1163 FILLER_101_349
*1164 FILLER_101_361
*1165 FILLER_101_373
*1166 FILLER_101_385
*1167 FILLER_101_39
*1168 FILLER_101_391
*1169 FILLER_101_393
*1170 FILLER_101_405
*1171 FILLER_101_417
*1172 FILLER_101_429
*1173 FILLER_101_441
*1174 FILLER_101_447
*1175 FILLER_101_449
*1176 FILLER_101_461
*1177 FILLER_101_473
*1178 FILLER_101_485
*1179 FILLER_101_497
*1180 FILLER_101_503
*1181 FILLER_101_505
*1182 FILLER_101_51
*1183 FILLER_101_517
*1184 FILLER_101_529
*1185 FILLER_101_541
*1186 FILLER_101_55
*1187 FILLER_101_553
*1188 FILLER_101_559
*1189 FILLER_101_561
*1190 FILLER_101_57
*1191 FILLER_101_573
*1192 FILLER_101_585
*1193 FILLER_101_597
*1194 FILLER_101_609
*1195 FILLER_101_615
*1196 FILLER_101_617
*1197 FILLER_101_629
*1198 FILLER_101_641
*1199 FILLER_101_653
*1200 FILLER_101_665
*1201 FILLER_101_671
*1202 FILLER_101_673
*1203 FILLER_101_685
*1204 FILLER_101_69
*1205 FILLER_101_697
*1206 FILLER_101_709
*1207 FILLER_101_721
*1208 FILLER_101_727
*1209 FILLER_101_729
*1210 FILLER_101_741
*1211 FILLER_101_753
*1212 FILLER_101_765
*1213 FILLER_101_777
*1214 FILLER_101_783
*1215 FILLER_101_785
*1216 FILLER_101_797
*1217 FILLER_101_809
*1218 FILLER_101_81
*1219 FILLER_101_821
*1220 FILLER_101_833
*1221 FILLER_101_839
*1222 FILLER_101_841
*1223 FILLER_101_853
*1224 FILLER_101_865
*1225 FILLER_101_877
*1226 FILLER_101_889
*1227 FILLER_101_895
*1228 FILLER_101_897
*1229 FILLER_101_909
*1230 FILLER_101_921
*1231 FILLER_101_93
*1232 FILLER_101_933
*1233 FILLER_101_945
*1234 FILLER_101_951
*1235 FILLER_101_953
*1236 FILLER_101_965
*1237 FILLER_101_977
*1238 FILLER_101_989
*1239 FILLER_102_1005
*1240 FILLER_102_1017
*1241 FILLER_102_1029
*1242 FILLER_102_1035
*1243 FILLER_102_1037
*1244 FILLER_102_1049
*1245 FILLER_102_1061
*1246 FILLER_102_1073
*1247 FILLER_102_1085
*1248 FILLER_102_109
*1249 FILLER_102_1091
*1250 FILLER_102_1093
*1251 FILLER_102_1105
*1252 FILLER_102_1117
*1253 FILLER_102_1129
*1254 FILLER_102_1141
*1255 FILLER_102_1147
*1256 FILLER_102_1149
*1257 FILLER_102_1161
*1258 FILLER_102_1173
*1259 FILLER_102_1185
*1260 FILLER_102_1197
*1261 FILLER_102_1203
*1262 FILLER_102_1205
*1263 FILLER_102_121
*1264 FILLER_102_1217
*1265 FILLER_102_1229
*1266 FILLER_102_1241
*1267 FILLER_102_1253
*1268 FILLER_102_1259
*1269 FILLER_102_1261
*1270 FILLER_102_1273
*1271 FILLER_102_133
*1272 FILLER_102_139
*1273 FILLER_102_141
*1274 FILLER_102_15
*1275 FILLER_102_153
*1276 FILLER_102_165
*1277 FILLER_102_177
*1278 FILLER_102_189
*1279 FILLER_102_195
*1280 FILLER_102_197
*1281 FILLER_102_209
*1282 FILLER_102_221
*1283 FILLER_102_233
*1284 FILLER_102_245
*1285 FILLER_102_251
*1286 FILLER_102_253
*1287 FILLER_102_265
*1288 FILLER_102_27
*1289 FILLER_102_277
*1290 FILLER_102_289
*1291 FILLER_102_29
*1292 FILLER_102_3
*1293 FILLER_102_301
*1294 FILLER_102_307
*1295 FILLER_102_309
*1296 FILLER_102_321
*1297 FILLER_102_333
*1298 FILLER_102_345
*1299 FILLER_102_357
*1300 FILLER_102_363
*1301 FILLER_102_365
*1302 FILLER_102_377
*1303 FILLER_102_389
*1304 FILLER_102_401
*1305 FILLER_102_41
*1306 FILLER_102_413
*1307 FILLER_102_419
*1308 FILLER_102_421
*1309 FILLER_102_433
*1310 FILLER_102_445
*1311 FILLER_102_457
*1312 FILLER_102_469
*1313 FILLER_102_475
*1314 FILLER_102_477
*1315 FILLER_102_489
*1316 FILLER_102_501
*1317 FILLER_102_513
*1318 FILLER_102_525
*1319 FILLER_102_53
*1320 FILLER_102_531
*1321 FILLER_102_533
*1322 FILLER_102_545
*1323 FILLER_102_557
*1324 FILLER_102_569
*1325 FILLER_102_581
*1326 FILLER_102_587
*1327 FILLER_102_589
*1328 FILLER_102_601
*1329 FILLER_102_613
*1330 FILLER_102_625
*1331 FILLER_102_637
*1332 FILLER_102_643
*1333 FILLER_102_645
*1334 FILLER_102_65
*1335 FILLER_102_657
*1336 FILLER_102_669
*1337 FILLER_102_681
*1338 FILLER_102_693
*1339 FILLER_102_699
*1340 FILLER_102_701
*1341 FILLER_102_713
*1342 FILLER_102_725
*1343 FILLER_102_737
*1344 FILLER_102_749
*1345 FILLER_102_755
*1346 FILLER_102_757
*1347 FILLER_102_769
*1348 FILLER_102_77
*1349 FILLER_102_781
*1350 FILLER_102_793
*1351 FILLER_102_805
*1352 FILLER_102_811
*1353 FILLER_102_813
*1354 FILLER_102_825
*1355 FILLER_102_83
*1356 FILLER_102_837
*1357 FILLER_102_849
*1358 FILLER_102_85
*1359 FILLER_102_861
*1360 FILLER_102_867
*1361 FILLER_102_869
*1362 FILLER_102_881
*1363 FILLER_102_893
*1364 FILLER_102_905
*1365 FILLER_102_917
*1366 FILLER_102_923
*1367 FILLER_102_925
*1368 FILLER_102_937
*1369 FILLER_102_949
*1370 FILLER_102_961
*1371 FILLER_102_97
*1372 FILLER_102_973
*1373 FILLER_102_979
*1374 FILLER_102_981
*1375 FILLER_102_993
*1376 FILLER_103_1001
*1377 FILLER_103_1007
*1378 FILLER_103_1009
*1379 FILLER_103_1021
*1380 FILLER_103_1033
*1381 FILLER_103_1045
*1382 FILLER_103_105
*1383 FILLER_103_1057
*1384 FILLER_103_1063
*1385 FILLER_103_1065
*1386 FILLER_103_1077
*1387 FILLER_103_1089
*1388 FILLER_103_1101
*1389 FILLER_103_111
*1390 FILLER_103_1113
*1391 FILLER_103_1119
*1392 FILLER_103_1121
*1393 FILLER_103_113
*1394 FILLER_103_1133
*1395 FILLER_103_1145
*1396 FILLER_103_1157
*1397 FILLER_103_1169
*1398 FILLER_103_1175
*1399 FILLER_103_1177
*1400 FILLER_103_1189
*1401 FILLER_103_1201
*1402 FILLER_103_1213
*1403 FILLER_103_1225
*1404 FILLER_103_1231
*1405 FILLER_103_1233
*1406 FILLER_103_1245
*1407 FILLER_103_125
*1408 FILLER_103_1257
*1409 FILLER_103_1269
*1410 FILLER_103_137
*1411 FILLER_103_149
*1412 FILLER_103_15
*1413 FILLER_103_161
*1414 FILLER_103_167
*1415 FILLER_103_169
*1416 FILLER_103_181
*1417 FILLER_103_193
*1418 FILLER_103_205
*1419 FILLER_103_217
*1420 FILLER_103_223
*1421 FILLER_103_225
*1422 FILLER_103_237
*1423 FILLER_103_249
*1424 FILLER_103_261
*1425 FILLER_103_27
*1426 FILLER_103_273
*1427 FILLER_103_279
*1428 FILLER_103_281
*1429 FILLER_103_293
*1430 FILLER_103_3
*1431 FILLER_103_305
*1432 FILLER_103_317
*1433 FILLER_103_329
*1434 FILLER_103_335
*1435 FILLER_103_337
*1436 FILLER_103_349
*1437 FILLER_103_361
*1438 FILLER_103_373
*1439 FILLER_103_385
*1440 FILLER_103_39
*1441 FILLER_103_391
*1442 FILLER_103_393
*1443 FILLER_103_405
*1444 FILLER_103_417
*1445 FILLER_103_429
*1446 FILLER_103_441
*1447 FILLER_103_447
*1448 FILLER_103_449
*1449 FILLER_103_461
*1450 FILLER_103_473
*1451 FILLER_103_485
*1452 FILLER_103_497
*1453 FILLER_103_503
*1454 FILLER_103_505
*1455 FILLER_103_51
*1456 FILLER_103_517
*1457 FILLER_103_529
*1458 FILLER_103_541
*1459 FILLER_103_55
*1460 FILLER_103_553
*1461 FILLER_103_559
*1462 FILLER_103_561
*1463 FILLER_103_57
*1464 FILLER_103_573
*1465 FILLER_103_585
*1466 FILLER_103_597
*1467 FILLER_103_609
*1468 FILLER_103_615
*1469 FILLER_103_617
*1470 FILLER_103_629
*1471 FILLER_103_641
*1472 FILLER_103_653
*1473 FILLER_103_665
*1474 FILLER_103_671
*1475 FILLER_103_673
*1476 FILLER_103_685
*1477 FILLER_103_69
*1478 FILLER_103_697
*1479 FILLER_103_709
*1480 FILLER_103_721
*1481 FILLER_103_727
*1482 FILLER_103_729
*1483 FILLER_103_741
*1484 FILLER_103_753
*1485 FILLER_103_765
*1486 FILLER_103_777
*1487 FILLER_103_783
*1488 FILLER_103_785
*1489 FILLER_103_797
*1490 FILLER_103_809
*1491 FILLER_103_81
*1492 FILLER_103_821
*1493 FILLER_103_833
*1494 FILLER_103_839
*1495 FILLER_103_841
*1496 FILLER_103_853
*1497 FILLER_103_865
*1498 FILLER_103_877
*1499 FILLER_103_889
*1500 FILLER_103_895
*1501 FILLER_103_897
*1502 FILLER_103_909
*1503 FILLER_103_921
*1504 FILLER_103_93
*1505 FILLER_103_933
*1506 FILLER_103_945
*1507 FILLER_103_951
*1508 FILLER_103_953
*1509 FILLER_103_965
*1510 FILLER_103_977
*1511 FILLER_103_989
*1512 FILLER_104_1005
*1513 FILLER_104_1017
*1514 FILLER_104_1029
*1515 FILLER_104_1035
*1516 FILLER_104_1037
*1517 FILLER_104_1049
*1518 FILLER_104_1061
*1519 FILLER_104_1073
*1520 FILLER_104_1085
*1521 FILLER_104_109
*1522 FILLER_104_1091
*1523 FILLER_104_1093
*1524 FILLER_104_1105
*1525 FILLER_104_1117
*1526 FILLER_104_1129
*1527 FILLER_104_1141
*1528 FILLER_104_1147
*1529 FILLER_104_1149
*1530 FILLER_104_1161
*1531 FILLER_104_1173
*1532 FILLER_104_1185
*1533 FILLER_104_1197
*1534 FILLER_104_1203
*1535 FILLER_104_1205
*1536 FILLER_104_121
*1537 FILLER_104_1217
*1538 FILLER_104_1229
*1539 FILLER_104_1241
*1540 FILLER_104_1253
*1541 FILLER_104_1259
*1542 FILLER_104_1261
*1543 FILLER_104_1267
*1544 FILLER_104_1271
*1545 FILLER_104_133
*1546 FILLER_104_139
*1547 FILLER_104_14
*1548 FILLER_104_141
*1549 FILLER_104_153
*1550 FILLER_104_165
*1551 FILLER_104_177
*1552 FILLER_104_189
*1553 FILLER_104_195
*1554 FILLER_104_197
*1555 FILLER_104_209
*1556 FILLER_104_221
*1557 FILLER_104_233
*1558 FILLER_104_245