*SPEF "ieee 1481-1999"
*DESIGN "user_proj_example"
*DATE "11:11:11 Fri 11 11, 1111"
*VENDOR "OpenRCX"
*PROGRAM "Parallel Extraction"
*VERSION "1.0"
*DESIGN_FLOW "NAME_SCOPE LOCAL" "PIN_CAP NONE"
*DIVIDER /
*DELIMITER :
*BUS_DELIMITER []
*T_UNIT 1 NS
*C_UNIT 1 PF
*R_UNIT 1 OHM
*L_UNIT 1 HENRY

*NAME_MAP
*1 io_in[0]
*2 io_in[10]
*3 io_in[11]
*4 io_in[12]
*5 io_in[13]
*6 io_in[14]
*7 io_in[15]
*8 io_in[16]
*9 io_in[17]
*10 io_in[18]
*11 io_in[19]
*12 io_in[1]
*13 io_in[20]
*14 io_in[21]
*15 io_in[22]
*16 io_in[23]
*17 io_in[24]
*18 io_in[25]
*19 io_in[26]
*20 io_in[27]
*21 io_in[28]
*22 io_in[29]
*23 io_in[2]
*24 io_in[30]
*25 io_in[31]
*26 io_in[32]
*27 io_in[33]
*28 io_in[34]
*29 io_in[35]
*30 io_in[36]
*31 io_in[37]
*32 io_in[3]
*33 io_in[4]
*34 io_in[5]
*35 io_in[6]
*36 io_in[7]
*37 io_in[8]
*38 io_in[9]
*39 net260
*40 net270
*41 net271
*42 net272
*43 net273
*44 net274
*45 net275
*46 net276
*47 net277
*48 net278
*49 net279
*50 net261
*51 net280
*52 net281
*53 net282
*54 net283
*55 net284
*56 net285
*57 net286
*58 net287
*59 net288
*60 net289
*61 net262
*62 net290
*63 net291
*64 net292
*65 net293
*66 net294
*67 net295
*68 net296
*69 net93
*70 net263
*71 net264
*72 net265
*73 net266
*74 net267
*75 net268
*76 net269
*77 io_out[0]
*78 net97
*79 net98
*80 net99
*81 net100
*82 net101
*83 net102
*84 net103
*85 net104
*86 net105
*87 net106
*88 io_out[1]
*89 io_out[20]
*90 io_out[21]
*91 io_out[22]
*92 io_out[23]
*93 io_out[24]
*94 io_out[25]
*95 io_out[26]
*96 net107
*97 net108
*98 net109
*99 io_out[2]
*100 net110
*101 net111
*102 net112
*103 net113
*104 net114
*105 net115
*106 net116
*107 net117
*108 io_out[3]
*109 io_out[4]
*110 io_out[5]
*111 io_out[6]
*112 net94
*113 net95
*114 net96
*115 net118
*116 net119
*117 net120
*118 la_data_in[0]
*119 la_data_in[100]
*120 la_data_in[101]
*121 la_data_in[102]
*122 la_data_in[103]
*123 la_data_in[104]
*124 la_data_in[105]
*125 la_data_in[106]
*126 la_data_in[107]
*127 la_data_in[108]
*128 la_data_in[109]
*129 la_data_in[10]
*130 la_data_in[110]
*131 la_data_in[111]
*132 la_data_in[112]
*133 la_data_in[113]
*134 la_data_in[114]
*135 la_data_in[115]
*136 la_data_in[116]
*137 la_data_in[117]
*138 la_data_in[118]
*139 la_data_in[119]
*140 la_data_in[11]
*141 la_data_in[120]
*142 la_data_in[121]
*143 la_data_in[122]
*144 la_data_in[123]
*145 la_data_in[124]
*146 la_data_in[125]
*147 la_data_in[126]
*148 la_data_in[127]
*149 la_data_in[12]
*150 la_data_in[13]
*151 la_data_in[14]
*152 la_data_in[15]
*153 la_data_in[16]
*154 la_data_in[17]
*155 la_data_in[18]
*156 la_data_in[19]
*157 la_data_in[1]
*158 la_data_in[20]
*159 la_data_in[21]
*160 la_data_in[22]
*161 la_data_in[23]
*162 la_data_in[24]
*163 la_data_in[25]
*164 la_data_in[26]
*165 la_data_in[27]
*166 la_data_in[28]
*167 la_data_in[29]
*168 la_data_in[2]
*169 la_data_in[30]
*170 la_data_in[31]
*171 la_data_in[32]
*172 la_data_in[33]
*173 la_data_in[34]
*174 la_data_in[35]
*175 la_data_in[36]
*176 la_data_in[37]
*177 la_data_in[38]
*178 la_data_in[39]
*179 la_data_in[3]
*180 la_data_in[40]
*181 la_data_in[41]
*182 la_data_in[42]
*183 la_data_in[43]
*184 la_data_in[44]
*185 la_data_in[45]
*186 la_data_in[46]
*187 la_data_in[47]
*188 la_data_in[48]
*189 la_data_in[49]
*190 la_data_in[4]
*191 la_data_in[50]
*192 la_data_in[51]
*193 la_data_in[52]
*194 la_data_in[53]
*195 la_data_in[54]
*196 la_data_in[55]
*197 la_data_in[56]
*198 la_data_in[57]
*199 la_data_in[58]
*200 la_data_in[59]
*201 la_data_in[5]
*202 la_data_in[60]
*203 la_data_in[61]
*204 la_data_in[62]
*205 la_data_in[63]
*206 la_data_in[64]
*207 la_data_in[65]
*208 la_data_in[66]
*209 la_data_in[67]
*210 la_data_in[68]
*211 la_data_in[69]
*212 la_data_in[6]
*213 la_data_in[70]
*214 la_data_in[71]
*215 la_data_in[72]
*216 la_data_in[73]
*217 la_data_in[74]
*218 la_data_in[75]
*219 la_data_in[76]
*220 la_data_in[77]
*221 la_data_in[78]
*222 la_data_in[79]
*223 la_data_in[7]
*224 la_data_in[80]
*225 la_data_in[81]
*226 la_data_in[82]
*227 la_data_in[83]
*228 la_data_in[84]
*229 la_data_in[85]
*230 la_data_in[86]
*231 la_data_in[87]
*232 la_data_in[88]
*233 la_data_in[89]
*234 la_data_in[8]
*235 la_data_in[90]
*236 la_data_in[91]
*237 la_data_in[92]
*238 la_data_in[93]
*239 la_data_in[94]
*240 la_data_in[95]
*241 la_data_in[96]
*242 la_data_in[97]
*243 la_data_in[98]
*244 la_data_in[99]
*245 la_data_in[9]
*246 la_data_out[0]
*247 net207
*248 net208
*249 net209
*250 net210
*251 net211
*252 net212
*253 net213
*254 net214
*255 net215
*256 net216
*257 net124
*258 net217
*259 net218
*260 net219
*261 net220
*262 net221
*263 net222
*264 net223
*265 net224
*266 net225
*267 net226
*268 net125
*269 net227
*270 net228
*271 net229
*272 net230
*273 net231
*274 net232
*275 net233
*276 net234
*277 net126
*278 net127
*279 net128
*280 net129
*281 net130
*282 net131
*283 net132
*284 net133
*285 la_data_out[1]
*286 net134
*287 net135
*288 net136
*289 net137
*290 net138
*291 net139
*292 net140
*293 net141
*294 net142
*295 net143
*296 la_data_out[2]
*297 net144
*298 net145
*299 la_data_out[32]
*300 la_data_out[33]
*301 la_data_out[34]
*302 la_data_out[35]
*303 la_data_out[36]
*304 la_data_out[37]
*305 la_data_out[38]
*306 net146
*307 la_data_out[3]
*308 net147
*309 net148
*310 net149
*311 net150
*312 net151
*313 net152
*314 net153
*315 net154
*316 net155
*317 net156
*318 la_data_out[4]
*319 net157
*320 net158
*321 net159
*322 net160
*323 net161
*324 net162
*325 net163
*326 net164
*327 net165
*328 net166
*329 la_data_out[5]
*330 net167
*331 net168
*332 net169
*333 net170
*334 net171
*335 net172
*336 net173
*337 net174
*338 net175
*339 net176
*340 la_data_out[6]
*341 net177
*342 net178
*343 net179
*344 net180
*345 net181
*346 net182
*347 net183
*348 net184
*349 net185
*350 net186
*351 net121
*352 net187
*353 net188
*354 net189
*355 net190
*356 net191
*357 net192
*358 net193
*359 net194
*360 net195
*361 net196
*362 net122
*363 net197
*364 net198
*365 net199
*366 net200
*367 net201
*368 net202
*369 net203
*370 net204
*371 net205
*372 net206
*373 net123
*374 la_oenb[0]
*375 la_oenb[100]
*376 la_oenb[101]
*377 la_oenb[102]
*378 la_oenb[103]
*379 la_oenb[104]
*380 la_oenb[105]
*381 la_oenb[106]
*382 la_oenb[107]
*383 la_oenb[108]
*384 la_oenb[109]
*385 la_oenb[10]
*386 la_oenb[110]
*387 la_oenb[111]
*388 la_oenb[112]
*389 la_oenb[113]
*390 la_oenb[114]
*391 la_oenb[115]
*392 la_oenb[116]
*393 la_oenb[117]
*394 la_oenb[118]
*395 la_oenb[119]
*396 la_oenb[11]
*397 la_oenb[120]
*398 la_oenb[121]
*399 la_oenb[122]
*400 la_oenb[123]
*401 la_oenb[124]
*402 la_oenb[125]
*403 la_oenb[126]
*404 la_oenb[127]
*405 la_oenb[12]
*406 la_oenb[13]
*407 la_oenb[14]
*408 la_oenb[15]
*409 la_oenb[16]
*410 la_oenb[17]
*411 la_oenb[18]
*412 la_oenb[19]
*413 la_oenb[1]
*414 la_oenb[20]
*415 la_oenb[21]
*416 la_oenb[22]
*417 la_oenb[23]
*418 la_oenb[24]
*419 la_oenb[25]
*420 la_oenb[26]
*421 la_oenb[27]
*422 la_oenb[28]
*423 la_oenb[29]
*424 la_oenb[2]
*425 la_oenb[30]
*426 la_oenb[31]
*427 la_oenb[32]
*428 la_oenb[33]
*429 la_oenb[34]
*430 la_oenb[35]
*431 la_oenb[36]
*432 la_oenb[37]
*433 la_oenb[38]
*434 la_oenb[39]
*435 la_oenb[3]
*436 la_oenb[40]
*437 la_oenb[41]
*438 la_oenb[42]
*439 la_oenb[43]
*440 la_oenb[44]
*441 la_oenb[45]
*442 la_oenb[46]
*443 la_oenb[47]
*444 la_oenb[48]
*445 la_oenb[49]
*446 la_oenb[4]
*447 la_oenb[50]
*448 la_oenb[51]
*449 la_oenb[52]
*450 la_oenb[53]
*451 la_oenb[54]
*452 la_oenb[55]
*453 la_oenb[56]
*454 la_oenb[57]
*455 la_oenb[58]
*456 la_oenb[59]
*457 la_oenb[5]
*458 la_oenb[60]
*459 la_oenb[61]
*460 la_oenb[62]
*461 la_oenb[63]
*462 la_oenb[64]
*463 la_oenb[65]
*464 la_oenb[66]
*465 la_oenb[67]
*466 la_oenb[68]
*467 la_oenb[69]
*468 la_oenb[6]
*469 la_oenb[70]
*470 la_oenb[71]
*471 la_oenb[72]
*472 la_oenb[73]
*473 la_oenb[74]
*474 la_oenb[75]
*475 la_oenb[76]
*476 la_oenb[77]
*477 la_oenb[78]
*478 la_oenb[79]
*479 la_oenb[7]
*480 la_oenb[80]
*481 la_oenb[81]
*482 la_oenb[82]
*483 la_oenb[83]
*484 la_oenb[84]
*485 la_oenb[85]
*486 la_oenb[86]
*487 la_oenb[87]
*488 la_oenb[88]
*489 la_oenb[89]
*490 la_oenb[8]
*491 la_oenb[90]
*492 la_oenb[91]
*493 la_oenb[92]
*494 la_oenb[93]
*495 la_oenb[94]
*496 la_oenb[95]
*497 la_oenb[96]
*498 la_oenb[97]
*499 la_oenb[98]
*500 la_oenb[99]
*501 la_oenb[9]
*504 wb_clk_i
*505 wb_rst_i
*506 wbs_ack_o
*507 wbs_adr_i[0]
*508 wbs_adr_i[10]
*509 wbs_adr_i[11]
*510 wbs_adr_i[12]
*511 wbs_adr_i[13]
*512 wbs_adr_i[14]
*513 wbs_adr_i[15]
*514 wbs_adr_i[16]
*515 wbs_adr_i[17]
*516 wbs_adr_i[18]
*517 wbs_adr_i[19]
*518 wbs_adr_i[1]
*519 wbs_adr_i[20]
*520 wbs_adr_i[21]
*521 wbs_adr_i[22]
*522 wbs_adr_i[23]
*523 wbs_adr_i[24]
*524 wbs_adr_i[25]
*525 wbs_adr_i[26]
*526 wbs_adr_i[27]
*527 wbs_adr_i[28]
*528 wbs_adr_i[29]
*529 wbs_adr_i[2]
*530 wbs_adr_i[30]
*531 wbs_adr_i[31]
*532 wbs_adr_i[3]
*533 wbs_adr_i[4]
*534 wbs_adr_i[5]
*535 wbs_adr_i[6]
*536 wbs_adr_i[7]
*537 wbs_adr_i[8]
*538 wbs_adr_i[9]
*539 wbs_cyc_i
*540 wbs_dat_i[0]
*541 wbs_dat_i[10]
*542 wbs_dat_i[11]
*543 wbs_dat_i[12]
*544 wbs_dat_i[13]
*545 wbs_dat_i[14]
*546 wbs_dat_i[15]
*547 wbs_dat_i[16]
*548 wbs_dat_i[17]
*549 wbs_dat_i[18]
*550 wbs_dat_i[19]
*551 wbs_dat_i[1]
*552 wbs_dat_i[20]
*553 wbs_dat_i[21]
*554 wbs_dat_i[22]
*555 wbs_dat_i[23]
*556 wbs_dat_i[24]
*557 wbs_dat_i[25]
*558 wbs_dat_i[26]
*559 wbs_dat_i[27]
*560 wbs_dat_i[28]
*561 wbs_dat_i[29]
*562 wbs_dat_i[2]
*563 wbs_dat_i[30]
*564 wbs_dat_i[31]
*565 wbs_dat_i[3]
*566 wbs_dat_i[4]
*567 wbs_dat_i[5]
*568 wbs_dat_i[6]
*569 wbs_dat_i[7]
*570 wbs_dat_i[8]
*571 wbs_dat_i[9]
*572 wbs_dat_o[0]
*573 net238
*574 net239
*575 net240
*576 net241
*577 net242
*578 net243
*579 net244
*580 net245
*581 net246
*582 net247
*583 wbs_dat_o[1]
*584 net248
*585 net249
*586 net250
*587 net251
*588 net252
*589 net253
*590 net254
*591 net255
*592 net256
*593 net257
*594 wbs_dat_o[2]
*595 net258
*596 net259
*597 wbs_dat_o[3]
*598 wbs_dat_o[4]
*599 wbs_dat_o[5]
*600 wbs_dat_o[6]
*601 net235
*602 net236
*603 net237
*604 wbs_sel_i[0]
*605 wbs_sel_i[1]
*606 wbs_sel_i[2]
*607 wbs_sel_i[3]
*608 wbs_stb_i
*609 wbs_we_i
*610 _000_
*611 _001_
*612 _002_
*613 _003_
*614 _004_
*615 _005_
*616 _006_
*617 _007_
*618 _008_
*619 _009_
*620 _010_
*621 _011_
*622 _012_
*623 _013_
*624 _014_
*625 _015_
*626 _016_
*627 _017_
*628 _018_
*629 _019_
*630 _020_
*631 _021_
*632 _022_
*633 _023_
*634 _024_
*635 _025_
*636 _026_
*637 _027_
*638 _028_
*639 _029_
*640 _030_
*641 _031_
*642 _032_
*643 _033_
*644 _034_
*645 _035_
*646 _036_
*647 _037_
*648 _038_
*649 _039_
*650 _040_
*651 _041_
*652 _042_
*653 _043_
*654 _044_
*655 _045_
*656 _046_
*657 _047_
*658 _048_
*659 _049_
*660 _050_
*661 _051_
*662 _052_
*663 _053_
*664 _054_
*665 _055_
*666 _056_
*667 _057_
*668 _058_
*669 _059_
*670 _060_
*671 _061_
*672 _062_
*673 _063_
*674 _064_
*675 _065_
*676 _066_
*677 _067_
*678 _068_
*679 _069_
*680 _070_
*681 _071_
*682 _072_
*683 _073_
*684 _074_
*685 _075_
*686 _076_
*687 _077_
*688 _078_
*689 _079_
*690 _080_
*691 _081_
*692 _082_
*693 _083_
*694 _084_
*695 _085_
*696 _086_
*697 _087_
*698 clknet_0_dff_last_analogFIGARO\.clk
*699 clknet_0_wb_clk_i
*700 clknet_1_0_0_dff_last_analogFIGARO\.clk
*701 clknet_1_0_1_dff_last_analogFIGARO\.clk
*702 clknet_1_0__leaf_wb_clk_i
*703 clknet_1_1_0_dff_last_analogFIGARO\.clk
*704 clknet_1_1_1_dff_last_analogFIGARO\.clk
*705 clknet_1_1__leaf_wb_clk_i
*706 clknet_2_0_0_dff_last_analogFIGARO\.clk
*707 clknet_2_0_1_dff_last_analogFIGARO\.clk
*708 clknet_2_1_0_dff_last_analogFIGARO\.clk
*709 clknet_2_1_1_dff_last_analogFIGARO\.clk
*710 clknet_2_2_0_dff_last_analogFIGARO\.clk
*711 clknet_2_2_1_dff_last_analogFIGARO\.clk
*712 clknet_2_3_0_dff_last_analogFIGARO\.clk
*713 clknet_2_3_1_dff_last_analogFIGARO\.clk
*714 dff_last_analogFIGARO\.clk
*715 dff_last_analogRO\.D
*716 dff_last_analogRO\.Q
*717 dff_last_sampledRO\.D
*718 dff_last_sampledRO\.Q
*719 entropy_RO\.genblk1\[10\]\.RO_gen\.del\[0\]
*720 entropy_RO\.genblk1\[10\]\.RO_gen\.del\[10\]
*721 entropy_RO\.genblk1\[10\]\.RO_gen\.del\[11\]
*722 entropy_RO\.genblk1\[10\]\.RO_gen\.del\[12\]
*723 entropy_RO\.genblk1\[10\]\.RO_gen\.del\[13\]
*724 entropy_RO\.genblk1\[10\]\.RO_gen\.del\[14\]
*725 entropy_RO\.genblk1\[10\]\.RO_gen\.del\[1\]
*726 entropy_RO\.genblk1\[10\]\.RO_gen\.del\[2\]
*727 entropy_RO\.genblk1\[10\]\.RO_gen\.del\[3\]
*728 entropy_RO\.genblk1\[10\]\.RO_gen\.del\[4\]
*729 entropy_RO\.genblk1\[10\]\.RO_gen\.del\[5\]
*730 entropy_RO\.genblk1\[10\]\.RO_gen\.del\[6\]
*731 entropy_RO\.genblk1\[10\]\.RO_gen\.del\[7\]
*732 entropy_RO\.genblk1\[10\]\.RO_gen\.del\[8\]
*733 entropy_RO\.genblk1\[10\]\.RO_gen\.del\[9\]
*734 entropy_RO\.genblk1\[10\]\.dff_gen\.Q
*735 entropy_RO\.genblk1\[11\]\.RO_gen\.del\[0\]
*736 entropy_RO\.genblk1\[11\]\.RO_gen\.del\[10\]
*737 entropy_RO\.genblk1\[11\]\.RO_gen\.del\[11\]
*738 entropy_RO\.genblk1\[11\]\.RO_gen\.del\[12\]
*739 entropy_RO\.genblk1\[11\]\.RO_gen\.del\[13\]
*740 entropy_RO\.genblk1\[11\]\.RO_gen\.del\[14\]
*741 entropy_RO\.genblk1\[11\]\.RO_gen\.del\[1\]
*742 entropy_RO\.genblk1\[11\]\.RO_gen\.del\[2\]
*743 entropy_RO\.genblk1\[11\]\.RO_gen\.del\[3\]
*744 entropy_RO\.genblk1\[11\]\.RO_gen\.del\[4\]
*745 entropy_RO\.genblk1\[11\]\.RO_gen\.del\[5\]
*746 entropy_RO\.genblk1\[11\]\.RO_gen\.del\[6\]
*747 entropy_RO\.genblk1\[11\]\.RO_gen\.del\[7\]
*748 entropy_RO\.genblk1\[11\]\.RO_gen\.del\[8\]
*749 entropy_RO\.genblk1\[11\]\.RO_gen\.del\[9\]
*750 entropy_RO\.genblk1\[11\]\.dff_gen\.Q
*751 entropy_RO\.genblk1\[12\]\.RO_gen\.del\[0\]
*752 entropy_RO\.genblk1\[12\]\.RO_gen\.del\[10\]
*753 entropy_RO\.genblk1\[12\]\.RO_gen\.del\[11\]
*754 entropy_RO\.genblk1\[12\]\.RO_gen\.del\[12\]
*755 entropy_RO\.genblk1\[12\]\.RO_gen\.del\[13\]
*756 entropy_RO\.genblk1\[12\]\.RO_gen\.del\[14\]
*757 entropy_RO\.genblk1\[12\]\.RO_gen\.del\[1\]
*758 entropy_RO\.genblk1\[12\]\.RO_gen\.del\[2\]
*759 entropy_RO\.genblk1\[12\]\.RO_gen\.del\[3\]
*760 entropy_RO\.genblk1\[12\]\.RO_gen\.del\[4\]
*761 entropy_RO\.genblk1\[12\]\.RO_gen\.del\[5\]
*762 entropy_RO\.genblk1\[12\]\.RO_gen\.del\[6\]
*763 entropy_RO\.genblk1\[12\]\.RO_gen\.del\[7\]
*764 entropy_RO\.genblk1\[12\]\.RO_gen\.del\[8\]
*765 entropy_RO\.genblk1\[12\]\.RO_gen\.del\[9\]
*766 entropy_RO\.genblk1\[12\]\.dff_gen\.Q
*767 entropy_RO\.genblk1\[13\]\.RO_gen\.del\[0\]
*768 entropy_RO\.genblk1\[13\]\.RO_gen\.del\[10\]
*769 entropy_RO\.genblk1\[13\]\.RO_gen\.del\[11\]
*770 entropy_RO\.genblk1\[13\]\.RO_gen\.del\[12\]
*771 entropy_RO\.genblk1\[13\]\.RO_gen\.del\[13\]
*772 entropy_RO\.genblk1\[13\]\.RO_gen\.del\[14\]
*773 entropy_RO\.genblk1\[13\]\.RO_gen\.del\[1\]
*774 entropy_RO\.genblk1\[13\]\.RO_gen\.del\[2\]
*775 entropy_RO\.genblk1\[13\]\.RO_gen\.del\[3\]
*776 entropy_RO\.genblk1\[13\]\.RO_gen\.del\[4\]
*777 entropy_RO\.genblk1\[13\]\.RO_gen\.del\[5\]
*778 entropy_RO\.genblk1\[13\]\.RO_gen\.del\[6\]
*779 entropy_RO\.genblk1\[13\]\.RO_gen\.del\[7\]
*780 entropy_RO\.genblk1\[13\]\.RO_gen\.del\[8\]
*781 entropy_RO\.genblk1\[13\]\.RO_gen\.del\[9\]
*782 entropy_RO\.genblk1\[13\]\.dff_gen\.Q
*783 entropy_RO\.genblk1\[14\]\.RO_gen\.del\[0\]
*784 entropy_RO\.genblk1\[14\]\.RO_gen\.del\[10\]
*785 entropy_RO\.genblk1\[14\]\.RO_gen\.del\[11\]
*786 entropy_RO\.genblk1\[14\]\.RO_gen\.del\[12\]
*787 entropy_RO\.genblk1\[14\]\.RO_gen\.del\[13\]
*788 entropy_RO\.genblk1\[14\]\.RO_gen\.del\[14\]
*789 entropy_RO\.genblk1\[14\]\.RO_gen\.del\[1\]
*790 entropy_RO\.genblk1\[14\]\.RO_gen\.del\[2\]
*791 entropy_RO\.genblk1\[14\]\.RO_gen\.del\[3\]
*792 entropy_RO\.genblk1\[14\]\.RO_gen\.del\[4\]
*793 entropy_RO\.genblk1\[14\]\.RO_gen\.del\[5\]
*794 entropy_RO\.genblk1\[14\]\.RO_gen\.del\[6\]
*795 entropy_RO\.genblk1\[14\]\.RO_gen\.del\[7\]
*796 entropy_RO\.genblk1\[14\]\.RO_gen\.del\[8\]
*797 entropy_RO\.genblk1\[14\]\.RO_gen\.del\[9\]
*798 entropy_RO\.genblk1\[14\]\.dff_gen\.Q
*799 entropy_RO\.genblk1\[15\]\.RO_gen\.del\[0\]
*800 entropy_RO\.genblk1\[15\]\.RO_gen\.del\[10\]
*801 entropy_RO\.genblk1\[15\]\.RO_gen\.del\[11\]
*802 entropy_RO\.genblk1\[15\]\.RO_gen\.del\[12\]
*803 entropy_RO\.genblk1\[15\]\.RO_gen\.del\[13\]
*804 entropy_RO\.genblk1\[15\]\.RO_gen\.del\[14\]
*805 entropy_RO\.genblk1\[15\]\.RO_gen\.del\[1\]
*806 entropy_RO\.genblk1\[15\]\.RO_gen\.del\[2\]
*807 entropy_RO\.genblk1\[15\]\.RO_gen\.del\[3\]
*808 entropy_RO\.genblk1\[15\]\.RO_gen\.del\[4\]
*809 entropy_RO\.genblk1\[15\]\.RO_gen\.del\[5\]
*810 entropy_RO\.genblk1\[15\]\.RO_gen\.del\[6\]
*811 entropy_RO\.genblk1\[15\]\.RO_gen\.del\[7\]
*812 entropy_RO\.genblk1\[15\]\.RO_gen\.del\[8\]
*813 entropy_RO\.genblk1\[15\]\.RO_gen\.del\[9\]
*814 entropy_RO\.genblk1\[15\]\.dff_gen\.Q
*815 entropy_RO\.genblk1\[16\]\.RO_gen\.del\[0\]
*816 entropy_RO\.genblk1\[16\]\.RO_gen\.del\[10\]
*817 entropy_RO\.genblk1\[16\]\.RO_gen\.del\[11\]
*818 entropy_RO\.genblk1\[16\]\.RO_gen\.del\[12\]
*819 entropy_RO\.genblk1\[16\]\.RO_gen\.del\[13\]
*820 entropy_RO\.genblk1\[16\]\.RO_gen\.del\[14\]
*821 entropy_RO\.genblk1\[16\]\.RO_gen\.del\[1\]
*822 entropy_RO\.genblk1\[16\]\.RO_gen\.del\[2\]
*823 entropy_RO\.genblk1\[16\]\.RO_gen\.del\[3\]
*824 entropy_RO\.genblk1\[16\]\.RO_gen\.del\[4\]
*825 entropy_RO\.genblk1\[16\]\.RO_gen\.del\[5\]
*826 entropy_RO\.genblk1\[16\]\.RO_gen\.del\[6\]
*827 entropy_RO\.genblk1\[16\]\.RO_gen\.del\[7\]
*828 entropy_RO\.genblk1\[16\]\.RO_gen\.del\[8\]
*829 entropy_RO\.genblk1\[16\]\.RO_gen\.del\[9\]
*830 entropy_RO\.genblk1\[16\]\.dff_gen\.Q
*831 entropy_RO\.genblk1\[17\]\.RO_gen\.del\[0\]
*832 entropy_RO\.genblk1\[17\]\.RO_gen\.del\[10\]
*833 entropy_RO\.genblk1\[17\]\.RO_gen\.del\[11\]
*834 entropy_RO\.genblk1\[17\]\.RO_gen\.del\[12\]
*835 entropy_RO\.genblk1\[17\]\.RO_gen\.del\[13\]
*836 entropy_RO\.genblk1\[17\]\.RO_gen\.del\[14\]
*837 entropy_RO\.genblk1\[17\]\.RO_gen\.del\[1\]
*838 entropy_RO\.genblk1\[17\]\.RO_gen\.del\[2\]
*839 entropy_RO\.genblk1\[17\]\.RO_gen\.del\[3\]
*840 entropy_RO\.genblk1\[17\]\.RO_gen\.del\[4\]
*841 entropy_RO\.genblk1\[17\]\.RO_gen\.del\[5\]
*842 entropy_RO\.genblk1\[17\]\.RO_gen\.del\[6\]
*843 entropy_RO\.genblk1\[17\]\.RO_gen\.del\[7\]
*844 entropy_RO\.genblk1\[17\]\.RO_gen\.del\[8\]
*845 entropy_RO\.genblk1\[17\]\.RO_gen\.del\[9\]
*846 entropy_RO\.genblk1\[17\]\.dff_gen\.Q
*847 entropy_RO\.genblk1\[18\]\.RO_gen\.del\[0\]
*848 entropy_RO\.genblk1\[18\]\.RO_gen\.del\[10\]
*849 entropy_RO\.genblk1\[18\]\.RO_gen\.del\[11\]
*850 entropy_RO\.genblk1\[18\]\.RO_gen\.del\[12\]
*851 entropy_RO\.genblk1\[18\]\.RO_gen\.del\[13\]
*852 entropy_RO\.genblk1\[18\]\.RO_gen\.del\[14\]
*853 entropy_RO\.genblk1\[18\]\.RO_gen\.del\[1\]
*854 entropy_RO\.genblk1\[18\]\.RO_gen\.del\[2\]
*855 entropy_RO\.genblk1\[18\]\.RO_gen\.del\[3\]
*856 entropy_RO\.genblk1\[18\]\.RO_gen\.del\[4\]
*857 entropy_RO\.genblk1\[18\]\.RO_gen\.del\[5\]
*858 entropy_RO\.genblk1\[18\]\.RO_gen\.del\[6\]
*859 entropy_RO\.genblk1\[18\]\.RO_gen\.del\[7\]
*860 entropy_RO\.genblk1\[18\]\.RO_gen\.del\[8\]
*861 entropy_RO\.genblk1\[18\]\.RO_gen\.del\[9\]
*862 entropy_RO\.genblk1\[18\]\.dff_gen\.Q
*863 entropy_RO\.genblk1\[19\]\.RO_gen\.del\[0\]
*864 entropy_RO\.genblk1\[19\]\.RO_gen\.del\[10\]
*865 entropy_RO\.genblk1\[19\]\.RO_gen\.del\[11\]
*866 entropy_RO\.genblk1\[19\]\.RO_gen\.del\[12\]
*867 entropy_RO\.genblk1\[19\]\.RO_gen\.del\[13\]
*868 entropy_RO\.genblk1\[19\]\.RO_gen\.del\[14\]
*869 entropy_RO\.genblk1\[19\]\.RO_gen\.del\[1\]
*870 entropy_RO\.genblk1\[19\]\.RO_gen\.del\[2\]
*871 entropy_RO\.genblk1\[19\]\.RO_gen\.del\[3\]
*872 entropy_RO\.genblk1\[19\]\.RO_gen\.del\[4\]
*873 entropy_RO\.genblk1\[19\]\.RO_gen\.del\[5\]
*874 entropy_RO\.genblk1\[19\]\.RO_gen\.del\[6\]
*875 entropy_RO\.genblk1\[19\]\.RO_gen\.del\[7\]
*876 entropy_RO\.genblk1\[19\]\.RO_gen\.del\[8\]
*877 entropy_RO\.genblk1\[19\]\.RO_gen\.del\[9\]
*878 entropy_RO\.genblk1\[19\]\.dff_gen\.Q
*879 entropy_RO\.genblk1\[1\]\.RO_gen\.del\[0\]
*880 entropy_RO\.genblk1\[1\]\.RO_gen\.del\[10\]
*881 entropy_RO\.genblk1\[1\]\.RO_gen\.del\[11\]
*882 entropy_RO\.genblk1\[1\]\.RO_gen\.del\[12\]
*883 entropy_RO\.genblk1\[1\]\.RO_gen\.del\[13\]
*884 entropy_RO\.genblk1\[1\]\.RO_gen\.del\[14\]
*885 entropy_RO\.genblk1\[1\]\.RO_gen\.del\[1\]
*886 entropy_RO\.genblk1\[1\]\.RO_gen\.del\[2\]
*887 entropy_RO\.genblk1\[1\]\.RO_gen\.del\[3\]
*888 entropy_RO\.genblk1\[1\]\.RO_gen\.del\[4\]
*889 entropy_RO\.genblk1\[1\]\.RO_gen\.del\[5\]
*890 entropy_RO\.genblk1\[1\]\.RO_gen\.del\[6\]
*891 entropy_RO\.genblk1\[1\]\.RO_gen\.del\[7\]
*892 entropy_RO\.genblk1\[1\]\.RO_gen\.del\[8\]
*893 entropy_RO\.genblk1\[1\]\.RO_gen\.del\[9\]
*894 entropy_RO\.genblk1\[20\]\.RO_gen\.del\[0\]
*895 entropy_RO\.genblk1\[20\]\.RO_gen\.del\[10\]
*896 entropy_RO\.genblk1\[20\]\.RO_gen\.del\[11\]
*897 entropy_RO\.genblk1\[20\]\.RO_gen\.del\[12\]
*898 entropy_RO\.genblk1\[20\]\.RO_gen\.del\[13\]
*899 entropy_RO\.genblk1\[20\]\.RO_gen\.del\[14\]
*900 entropy_RO\.genblk1\[20\]\.RO_gen\.del\[1\]
*901 entropy_RO\.genblk1\[20\]\.RO_gen\.del\[2\]
*902 entropy_RO\.genblk1\[20\]\.RO_gen\.del\[3\]
*903 entropy_RO\.genblk1\[20\]\.RO_gen\.del\[4\]
*904 entropy_RO\.genblk1\[20\]\.RO_gen\.del\[5\]
*905 entropy_RO\.genblk1\[20\]\.RO_gen\.del\[6\]
*906 entropy_RO\.genblk1\[20\]\.RO_gen\.del\[7\]
*907 entropy_RO\.genblk1\[20\]\.RO_gen\.del\[8\]
*908 entropy_RO\.genblk1\[20\]\.RO_gen\.del\[9\]
*909 entropy_RO\.genblk1\[20\]\.dff_gen\.Q
*910 entropy_RO\.genblk1\[21\]\.RO_gen\.del\[0\]
*911 entropy_RO\.genblk1\[21\]\.RO_gen\.del\[10\]
*912 entropy_RO\.genblk1\[21\]\.RO_gen\.del\[11\]
*913 entropy_RO\.genblk1\[21\]\.RO_gen\.del\[12\]
*914 entropy_RO\.genblk1\[21\]\.RO_gen\.del\[13\]
*915 entropy_RO\.genblk1\[21\]\.RO_gen\.del\[14\]
*916 entropy_RO\.genblk1\[21\]\.RO_gen\.del\[1\]
*917 entropy_RO\.genblk1\[21\]\.RO_gen\.del\[2\]
*918 entropy_RO\.genblk1\[21\]\.RO_gen\.del\[3\]
*919 entropy_RO\.genblk1\[21\]\.RO_gen\.del\[4\]
*920 entropy_RO\.genblk1\[21\]\.RO_gen\.del\[5\]
*921 entropy_RO\.genblk1\[21\]\.RO_gen\.del\[6\]
*922 entropy_RO\.genblk1\[21\]\.RO_gen\.del\[7\]
*923 entropy_RO\.genblk1\[21\]\.RO_gen\.del\[8\]
*924 entropy_RO\.genblk1\[21\]\.RO_gen\.del\[9\]
*925 entropy_RO\.genblk1\[21\]\.dff_gen\.Q
*926 entropy_RO\.genblk1\[22\]\.RO_gen\.del\[0\]
*927 entropy_RO\.genblk1\[22\]\.RO_gen\.del\[10\]
*928 entropy_RO\.genblk1\[22\]\.RO_gen\.del\[11\]
*929 entropy_RO\.genblk1\[22\]\.RO_gen\.del\[12\]
*930 entropy_RO\.genblk1\[22\]\.RO_gen\.del\[13\]
*931 entropy_RO\.genblk1\[22\]\.RO_gen\.del\[14\]
*932 entropy_RO\.genblk1\[22\]\.RO_gen\.del\[1\]
*933 entropy_RO\.genblk1\[22\]\.RO_gen\.del\[2\]
*934 entropy_RO\.genblk1\[22\]\.RO_gen\.del\[3\]
*935 entropy_RO\.genblk1\[22\]\.RO_gen\.del\[4\]
*936 entropy_RO\.genblk1\[22\]\.RO_gen\.del\[5\]
*937 entropy_RO\.genblk1\[22\]\.RO_gen\.del\[6\]
*938 entropy_RO\.genblk1\[22\]\.RO_gen\.del\[7\]
*939 entropy_RO\.genblk1\[22\]\.RO_gen\.del\[8\]
*940 entropy_RO\.genblk1\[22\]\.RO_gen\.del\[9\]
*941 entropy_RO\.genblk1\[22\]\.dff_gen\.Q
*942 entropy_RO\.genblk1\[23\]\.RO_gen\.del\[0\]
*943 entropy_RO\.genblk1\[23\]\.RO_gen\.del\[10\]
*944 entropy_RO\.genblk1\[23\]\.RO_gen\.del\[11\]
*945 entropy_RO\.genblk1\[23\]\.RO_gen\.del\[12\]
*946 entropy_RO\.genblk1\[23\]\.RO_gen\.del\[13\]
*947 entropy_RO\.genblk1\[23\]\.RO_gen\.del\[14\]
*948 entropy_RO\.genblk1\[23\]\.RO_gen\.del\[1\]
*949 entropy_RO\.genblk1\[23\]\.RO_gen\.del\[2\]
*950 entropy_RO\.genblk1\[23\]\.RO_gen\.del\[3\]
*951 entropy_RO\.genblk1\[23\]\.RO_gen\.del\[4\]
*952 entropy_RO\.genblk1\[23\]\.RO_gen\.del\[5\]
*953 entropy_RO\.genblk1\[23\]\.RO_gen\.del\[6\]
*954 entropy_RO\.genblk1\[23\]\.RO_gen\.del\[7\]
*955 entropy_RO\.genblk1\[23\]\.RO_gen\.del\[8\]
*956 entropy_RO\.genblk1\[23\]\.RO_gen\.del\[9\]
*957 entropy_RO\.genblk1\[23\]\.dff_gen\.Q
*958 entropy_RO\.genblk1\[24\]\.RO_gen\.del\[0\]
*959 entropy_RO\.genblk1\[24\]\.RO_gen\.del\[10\]
*960 entropy_RO\.genblk1\[24\]\.RO_gen\.del\[11\]
*961 entropy_RO\.genblk1\[24\]\.RO_gen\.del\[12\]
*962 entropy_RO\.genblk1\[24\]\.RO_gen\.del\[13\]
*963 entropy_RO\.genblk1\[24\]\.RO_gen\.del\[14\]
*964 entropy_RO\.genblk1\[24\]\.RO_gen\.del\[1\]
*965 entropy_RO\.genblk1\[24\]\.RO_gen\.del\[2\]
*966 entropy_RO\.genblk1\[24\]\.RO_gen\.del\[3\]
*967 entropy_RO\.genblk1\[24\]\.RO_gen\.del\[4\]
*968 entropy_RO\.genblk1\[24\]\.RO_gen\.del\[5\]
*969 entropy_RO\.genblk1\[24\]\.RO_gen\.del\[6\]
*970 entropy_RO\.genblk1\[24\]\.RO_gen\.del\[7\]
*971 entropy_RO\.genblk1\[24\]\.RO_gen\.del\[8\]
*972 entropy_RO\.genblk1\[24\]\.RO_gen\.del\[9\]
*973 entropy_RO\.genblk1\[24\]\.dff_gen\.Q
*974 entropy_RO\.genblk1\[25\]\.RO_gen\.del\[0\]
*975 entropy_RO\.genblk1\[25\]\.RO_gen\.del\[10\]
*976 entropy_RO\.genblk1\[25\]\.RO_gen\.del\[11\]
*977 entropy_RO\.genblk1\[25\]\.RO_gen\.del\[12\]
*978 entropy_RO\.genblk1\[25\]\.RO_gen\.del\[13\]
*979 entropy_RO\.genblk1\[25\]\.RO_gen\.del\[14\]
*980 entropy_RO\.genblk1\[25\]\.RO_gen\.del\[1\]
*981 entropy_RO\.genblk1\[25\]\.RO_gen\.del\[2\]
*982 entropy_RO\.genblk1\[25\]\.RO_gen\.del\[3\]
*983 entropy_RO\.genblk1\[25\]\.RO_gen\.del\[4\]
*984 entropy_RO\.genblk1\[25\]\.RO_gen\.del\[5\]
*985 entropy_RO\.genblk1\[25\]\.RO_gen\.del\[6\]
*986 entropy_RO\.genblk1\[25\]\.RO_gen\.del\[7\]
*987 entropy_RO\.genblk1\[25\]\.RO_gen\.del\[8\]
*988 entropy_RO\.genblk1\[25\]\.RO_gen\.del\[9\]
*989 entropy_RO\.genblk1\[25\]\.dff_gen\.Q
*990 entropy_RO\.genblk1\[26\]\.RO_gen\.del\[0\]
*991 entropy_RO\.genblk1\[26\]\.RO_gen\.del\[10\]
*992 entropy_RO\.genblk1\[26\]\.RO_gen\.del\[11\]
*993 entropy_RO\.genblk1\[26\]\.RO_gen\.del\[12\]
*994 entropy_RO\.genblk1\[26\]\.RO_gen\.del\[13\]
*995 entropy_RO\.genblk1\[26\]\.RO_gen\.del\[14\]
*996 entropy_RO\.genblk1\[26\]\.RO_gen\.del\[1\]
*997 entropy_RO\.genblk1\[26\]\.RO_gen\.del\[2\]
*998 entropy_RO\.genblk1\[26\]\.RO_gen\.del\[3\]
*999 entropy_RO\.genblk1\[26\]\.RO_gen\.del\[4\]
*1000 entropy_RO\.genblk1\[26\]\.RO_gen\.del\[5\]
*1001 entropy_RO\.genblk1\[26\]\.RO_gen\.del\[6\]
*1002 entropy_RO\.genblk1\[26\]\.RO_gen\.del\[7\]
*1003 entropy_RO\.genblk1\[26\]\.RO_gen\.del\[8\]
*1004 entropy_RO\.genblk1\[26\]\.RO_gen\.del\[9\]
*1005 entropy_RO\.genblk1\[26\]\.dff_gen\.Q
*1006 entropy_RO\.genblk1\[27\]\.RO_gen\.del\[0\]
*1007 entropy_RO\.genblk1\[27\]\.RO_gen\.del\[10\]
*1008 entropy_RO\.genblk1\[27\]\.RO_gen\.del\[11\]
*1009 entropy_RO\.genblk1\[27\]\.RO_gen\.del\[12\]
*1010 entropy_RO\.genblk1\[27\]\.RO_gen\.del\[13\]
*1011 entropy_RO\.genblk1\[27\]\.RO_gen\.del\[14\]
*1012 entropy_RO\.genblk1\[27\]\.RO_gen\.del\[1\]
*1013 entropy_RO\.genblk1\[27\]\.RO_gen\.del\[2\]
*1014 entropy_RO\.genblk1\[27\]\.RO_gen\.del\[3\]
*1015 entropy_RO\.genblk1\[27\]\.RO_gen\.del\[4\]
*1016 entropy_RO\.genblk1\[27\]\.RO_gen\.del\[5\]
*1017 entropy_RO\.genblk1\[27\]\.RO_gen\.del\[6\]
*1018 entropy_RO\.genblk1\[27\]\.RO_gen\.del\[7\]
*1019 entropy_RO\.genblk1\[27\]\.RO_gen\.del\[8\]
*1020 entropy_RO\.genblk1\[27\]\.RO_gen\.del\[9\]
*1021 entropy_RO\.genblk1\[27\]\.dff_gen\.Q
*1022 entropy_RO\.genblk1\[28\]\.RO_gen\.del\[0\]
*1023 entropy_RO\.genblk1\[28\]\.RO_gen\.del\[10\]
*1024 entropy_RO\.genblk1\[28\]\.RO_gen\.del\[11\]
*1025 entropy_RO\.genblk1\[28\]\.RO_gen\.del\[12\]
*1026 entropy_RO\.genblk1\[28\]\.RO_gen\.del\[13\]
*1027 entropy_RO\.genblk1\[28\]\.RO_gen\.del\[14\]
*1028 entropy_RO\.genblk1\[28\]\.RO_gen\.del\[1\]
*1029 entropy_RO\.genblk1\[28\]\.RO_gen\.del\[2\]
*1030 entropy_RO\.genblk1\[28\]\.RO_gen\.del\[3\]
*1031 entropy_RO\.genblk1\[28\]\.RO_gen\.del\[4\]
*1032 entropy_RO\.genblk1\[28\]\.RO_gen\.del\[5\]
*1033 entropy_RO\.genblk1\[28\]\.RO_gen\.del\[6\]
*1034 entropy_RO\.genblk1\[28\]\.RO_gen\.del\[7\]
*1035 entropy_RO\.genblk1\[28\]\.RO_gen\.del\[8\]
*1036 entropy_RO\.genblk1\[28\]\.RO_gen\.del\[9\]
*1037 entropy_RO\.genblk1\[28\]\.dff_gen\.Q
*1038 entropy_RO\.genblk1\[29\]\.RO_gen\.del\[0\]
*1039 entropy_RO\.genblk1\[29\]\.RO_gen\.del\[10\]
*1040 entropy_RO\.genblk1\[29\]\.RO_gen\.del\[11\]
*1041 entropy_RO\.genblk1\[29\]\.RO_gen\.del\[12\]
*1042 entropy_RO\.genblk1\[29\]\.RO_gen\.del\[13\]
*1043 entropy_RO\.genblk1\[29\]\.RO_gen\.del\[14\]
*1044 entropy_RO\.genblk1\[29\]\.RO_gen\.del\[1\]
*1045 entropy_RO\.genblk1\[29\]\.RO_gen\.del\[2\]
*1046 entropy_RO\.genblk1\[29\]\.RO_gen\.del\[3\]
*1047 entropy_RO\.genblk1\[29\]\.RO_gen\.del\[4\]
*1048 entropy_RO\.genblk1\[29\]\.RO_gen\.del\[5\]
*1049 entropy_RO\.genblk1\[29\]\.RO_gen\.del\[6\]
*1050 entropy_RO\.genblk1\[29\]\.RO_gen\.del\[7\]
*1051 entropy_RO\.genblk1\[29\]\.RO_gen\.del\[8\]
*1052 entropy_RO\.genblk1\[29\]\.RO_gen\.del\[9\]
*1053 entropy_RO\.genblk1\[29\]\.dff_gen\.Q
*1054 entropy_RO\.genblk1\[30\]\.RO_gen\.del\[0\]
*1055 entropy_RO\.genblk1\[30\]\.RO_gen\.del\[10\]
*1056 entropy_RO\.genblk1\[30\]\.RO_gen\.del\[11\]
*1057 entropy_RO\.genblk1\[30\]\.RO_gen\.del\[12\]
*1058 entropy_RO\.genblk1\[30\]\.RO_gen\.del\[13\]
*1059 entropy_RO\.genblk1\[30\]\.RO_gen\.del\[14\]
*1060 entropy_RO\.genblk1\[30\]\.RO_gen\.del\[1\]
*1061 entropy_RO\.genblk1\[30\]\.RO_gen\.del\[2\]
*1062 entropy_RO\.genblk1\[30\]\.RO_gen\.del\[3\]
*1063 entropy_RO\.genblk1\[30\]\.RO_gen\.del\[4\]
*1064 entropy_RO\.genblk1\[30\]\.RO_gen\.del\[5\]
*1065 entropy_RO\.genblk1\[30\]\.RO_gen\.del\[6\]
*1066 entropy_RO\.genblk1\[30\]\.RO_gen\.del\[7\]
*1067 entropy_RO\.genblk1\[30\]\.RO_gen\.del\[8\]
*1068 entropy_RO\.genblk1\[30\]\.RO_gen\.del\[9\]
*1069 entropy_RO\.genblk1\[30\]\.dff_gen\.Q
*1070 entropy_RO\.genblk1\[31\]\.RO_gen\.del\[0\]
*1071 entropy_RO\.genblk1\[31\]\.RO_gen\.del\[10\]
*1072 entropy_RO\.genblk1\[31\]\.RO_gen\.del\[11\]
*1073 entropy_RO\.genblk1\[31\]\.RO_gen\.del\[12\]
*1074 entropy_RO\.genblk1\[31\]\.RO_gen\.del\[13\]
*1075 entropy_RO\.genblk1\[31\]\.RO_gen\.del\[14\]
*1076 entropy_RO\.genblk1\[31\]\.RO_gen\.del\[1\]
*1077 entropy_RO\.genblk1\[31\]\.RO_gen\.del\[2\]
*1078 entropy_RO\.genblk1\[31\]\.RO_gen\.del\[3\]
*1079 entropy_RO\.genblk1\[31\]\.RO_gen\.del\[4\]
*1080 entropy_RO\.genblk1\[31\]\.RO_gen\.del\[5\]
*1081 entropy_RO\.genblk1\[31\]\.RO_gen\.del\[6\]
*1082 entropy_RO\.genblk1\[31\]\.RO_gen\.del\[7\]
*1083 entropy_RO\.genblk1\[31\]\.RO_gen\.del\[8\]
*1084 entropy_RO\.genblk1\[31\]\.RO_gen\.del\[9\]
*1085 entropy_RO\.genblk1\[31\]\.dff_gen\.Q
*1086 entropy_RO\.genblk1\[32\]\.RO_gen\.del\[0\]
*1087 entropy_RO\.genblk1\[32\]\.RO_gen\.del\[10\]
*1088 entropy_RO\.genblk1\[32\]\.RO_gen\.del\[11\]
*1089 entropy_RO\.genblk1\[32\]\.RO_gen\.del\[12\]