*SPEF "ieee 1481-1999"
*DESIGN "user_proj_example"
*DATE "11:11:11 Fri 11 11, 1111"
*VENDOR "OpenRCX"
*PROGRAM "Parallel Extraction"
*VERSION "1.0"
*DESIGN_FLOW "NAME_SCOPE LOCAL" "PIN_CAP NONE"
*DIVIDER /
*DELIMITER :
*BUS_DELIMITER []
*T_UNIT 1 NS
*C_UNIT 1 PF
*R_UNIT 1 OHM
*L_UNIT 1 HENRY

*NAME_MAP
*1 io_in[0]
*2 io_in[10]
*3 io_in[11]
*4 io_in[12]
*5 io_in[13]
*6 io_in[14]
*7 io_in[15]
*8 io_in[16]
*9 io_in[17]
*10 io_in[18]
*11 io_in[19]
*12 io_in[1]
*13 io_in[20]
*14 io_in[21]
*15 io_in[22]
*16 io_in[23]
*17 io_in[24]
*18 io_in[25]
*19 io_in[26]
*20 io_in[27]
*21 io_in[28]
*22 io_in[29]
*23 io_in[2]
*24 io_in[30]
*25 io_in[31]
*26 io_in[32]
*27 io_in[33]
*28 io_in[34]
*29 io_in[35]
*30 io_in[36]
*31 io_in[37]
*32 io_in[3]
*33 io_in[4]
*34 io_in[5]
*35 io_in[6]
*36 io_in[7]
*37 io_in[8]
*38 io_in[9]
*39 io_oeb[0]
*40 io_oeb[10]
*41 io_oeb[11]
*42 io_oeb[12]
*43 io_oeb[13]
*44 io_oeb[14]
*45 io_oeb[15]
*46 io_oeb[16]
*47 io_oeb[17]
*48 io_oeb[18]
*49 io_oeb[19]
*50 io_oeb[1]
*51 io_oeb[20]
*52 io_oeb[21]
*53 io_oeb[22]
*54 io_oeb[23]
*55 io_oeb[24]
*56 io_oeb[25]
*57 io_oeb[26]
*58 io_oeb[27]
*59 io_oeb[28]
*60 io_oeb[29]
*61 io_oeb[2]
*62 io_oeb[30]
*63 io_oeb[31]
*64 io_oeb[32]
*65 io_oeb[33]
*66 io_oeb[34]
*67 io_oeb[35]
*68 io_oeb[36]
*69 io_oeb[37]
*70 io_oeb[3]
*71 io_oeb[4]
*72 io_oeb[5]
*73 io_oeb[6]
*74 io_oeb[7]
*75 io_oeb[8]
*76 io_oeb[9]
*77 io_out[0]
*78 io_out[10]
*79 io_out[11]
*80 io_out[12]
*81 io_out[13]
*82 io_out[14]
*83 io_out[15]
*84 io_out[16]
*85 io_out[17]
*86 io_out[18]
*87 io_out[19]
*88 io_out[1]
*89 io_out[20]
*90 io_out[21]
*91 io_out[22]
*92 io_out[23]
*93 io_out[24]
*94 io_out[25]
*95 io_out[26]
*96 io_out[27]
*97 io_out[28]
*98 io_out[29]
*99 io_out[2]
*100 io_out[30]
*101 io_out[31]
*102 io_out[32]
*103 io_out[33]
*104 io_out[34]
*105 io_out[35]
*106 io_out[36]
*107 io_out[37]
*108 io_out[3]
*109 io_out[4]
*110 io_out[5]
*111 io_out[6]
*112 io_out[7]
*113 io_out[8]
*114 io_out[9]
*115 irq[0]
*116 irq[1]
*117 irq[2]
*118 la_data_in[0]
*119 la_data_in[100]
*120 la_data_in[101]
*121 la_data_in[102]
*122 la_data_in[103]
*123 la_data_in[104]
*124 la_data_in[105]
*125 la_data_in[106]
*126 la_data_in[107]
*127 la_data_in[108]
*128 la_data_in[109]
*129 la_data_in[10]
*130 la_data_in[110]
*131 la_data_in[111]
*132 la_data_in[112]
*133 la_data_in[113]
*134 la_data_in[114]
*135 la_data_in[115]
*136 la_data_in[116]
*137 la_data_in[117]
*138 la_data_in[118]
*139 la_data_in[119]
*140 la_data_in[11]
*141 la_data_in[120]
*142 la_data_in[121]
*143 la_data_in[122]
*144 la_data_in[123]
*145 la_data_in[124]
*146 la_data_in[125]
*147 la_data_in[126]
*148 la_data_in[127]
*149 la_data_in[12]
*150 la_data_in[13]
*151 la_data_in[14]
*152 la_data_in[15]
*153 la_data_in[16]
*154 la_data_in[17]
*155 la_data_in[18]
*156 la_data_in[19]
*157 la_data_in[1]
*158 la_data_in[20]
*159 la_data_in[21]
*160 la_data_in[22]
*161 la_data_in[23]
*162 la_data_in[24]
*163 la_data_in[25]
*164 la_data_in[26]
*165 la_data_in[27]
*166 la_data_in[28]
*167 la_data_in[29]
*168 la_data_in[2]
*169 la_data_in[30]
*170 la_data_in[31]
*171 la_data_in[32]
*172 la_data_in[33]
*173 la_data_in[34]
*174 la_data_in[35]
*175 la_data_in[36]
*176 la_data_in[37]
*177 la_data_in[38]
*178 la_data_in[39]
*179 la_data_in[3]
*180 la_data_in[40]
*181 la_data_in[41]
*182 la_data_in[42]
*183 la_data_in[43]
*184 la_data_in[44]
*185 la_data_in[45]
*186 la_data_in[46]
*187 la_data_in[47]
*188 la_data_in[48]
*189 la_data_in[49]
*190 la_data_in[4]
*191 la_data_in[50]
*192 la_data_in[51]
*193 la_data_in[52]
*194 la_data_in[53]
*195 la_data_in[54]
*196 la_data_in[55]
*197 la_data_in[56]
*198 la_data_in[57]
*199 la_data_in[58]
*200 la_data_in[59]
*201 la_data_in[5]
*202 la_data_in[60]
*203 la_data_in[61]
*204 la_data_in[62]
*205 la_data_in[63]
*206 la_data_in[64]
*207 la_data_in[65]
*208 la_data_in[66]
*209 la_data_in[67]
*210 la_data_in[68]
*211 la_data_in[69]
*212 la_data_in[6]
*213 la_data_in[70]
*214 la_data_in[71]
*215 la_data_in[72]
*216 la_data_in[73]
*217 la_data_in[74]
*218 la_data_in[75]
*219 la_data_in[76]
*220 la_data_in[77]
*221 la_data_in[78]
*222 la_data_in[79]
*223 la_data_in[7]
*224 la_data_in[80]
*225 la_data_in[81]
*226 la_data_in[82]
*227 la_data_in[83]
*228 la_data_in[84]
*229 la_data_in[85]
*230 la_data_in[86]
*231 la_data_in[87]
*232 la_data_in[88]
*233 la_data_in[89]
*234 la_data_in[8]
*235 la_data_in[90]
*236 la_data_in[91]
*237 la_data_in[92]
*238 la_data_in[93]
*239 la_data_in[94]
*240 la_data_in[95]
*241 la_data_in[96]
*242 la_data_in[97]
*243 la_data_in[98]
*244 la_data_in[99]
*245 la_data_in[9]
*246 la_data_out[0]
*247 la_data_out[100]
*248 la_data_out[101]
*249 la_data_out[102]
*250 la_data_out[103]
*251 la_data_out[104]
*252 la_data_out[105]
*253 la_data_out[106]
*254 la_data_out[107]
*255 la_data_out[108]
*256 la_data_out[109]
*257 la_data_out[10]
*258 la_data_out[110]
*259 la_data_out[111]
*260 la_data_out[112]
*261 la_data_out[113]
*262 la_data_out[114]
*263 la_data_out[115]
*264 la_data_out[116]
*265 la_data_out[117]
*266 la_data_out[118]
*267 la_data_out[119]
*268 la_data_out[11]
*269 la_data_out[120]
*270 la_data_out[121]
*271 la_data_out[122]
*272 la_data_out[123]
*273 la_data_out[124]
*274 la_data_out[125]
*275 la_data_out[126]
*276 la_data_out[127]
*277 la_data_out[12]
*278 la_data_out[13]
*279 la_data_out[14]
*280 la_data_out[15]
*281 la_data_out[16]
*282 la_data_out[17]
*283 la_data_out[18]
*284 la_data_out[19]
*285 la_data_out[1]
*286 la_data_out[20]
*287 la_data_out[21]
*288 la_data_out[22]
*289 la_data_out[23]
*290 la_data_out[24]
*291 la_data_out[25]
*292 la_data_out[26]
*293 la_data_out[27]
*294 la_data_out[28]
*295 la_data_out[29]
*296 la_data_out[2]
*297 la_data_out[30]
*298 la_data_out[31]
*299 la_data_out[32]
*300 la_data_out[33]
*301 la_data_out[34]
*302 la_data_out[35]
*303 la_data_out[36]
*304 la_data_out[37]
*305 la_data_out[38]
*306 la_data_out[39]
*307 la_data_out[3]
*308 la_data_out[40]
*309 la_data_out[41]
*310 la_data_out[42]
*311 la_data_out[43]
*312 la_data_out[44]
*313 la_data_out[45]
*314 la_data_out[46]
*315 la_data_out[47]
*316 la_data_out[48]
*317 la_data_out[49]
*318 la_data_out[4]
*319 la_data_out[50]
*320 la_data_out[51]
*321 la_data_out[52]
*322 la_data_out[53]
*323 la_data_out[54]
*324 la_data_out[55]
*325 la_data_out[56]
*326 la_data_out[57]
*327 la_data_out[58]
*328 la_data_out[59]
*329 la_data_out[5]
*330 la_data_out[60]
*331 la_data_out[61]
*332 la_data_out[62]
*333 la_data_out[63]
*334 la_data_out[64]
*335 la_data_out[65]
*336 la_data_out[66]
*337 la_data_out[67]
*338 la_data_out[68]
*339 la_data_out[69]
*340 la_data_out[6]
*341 la_data_out[70]
*342 la_data_out[71]
*343 la_data_out[72]
*344 la_data_out[73]
*345 la_data_out[74]
*346 la_data_out[75]
*347 la_data_out[76]
*348 la_data_out[77]
*349 la_data_out[78]
*350 la_data_out[79]
*351 la_data_out[7]
*352 la_data_out[80]
*353 la_data_out[81]
*354 la_data_out[82]
*355 la_data_out[83]
*356 la_data_out[84]
*357 la_data_out[85]
*358 la_data_out[86]
*359 la_data_out[87]
*360 la_data_out[88]
*361 la_data_out[89]
*362 la_data_out[8]
*363 la_data_out[90]
*364 la_data_out[91]
*365 la_data_out[92]
*366 la_data_out[93]
*367 la_data_out[94]
*368 la_data_out[95]
*369 la_data_out[96]
*370 la_data_out[97]
*371 la_data_out[98]
*372 la_data_out[99]
*373 la_data_out[9]
*374 la_oenb[0]
*375 la_oenb[100]
*376 la_oenb[101]
*377 la_oenb[102]
*378 la_oenb[103]
*379 la_oenb[104]
*380 la_oenb[105]
*381 la_oenb[106]
*382 la_oenb[107]
*383 la_oenb[108]
*384 la_oenb[109]
*385 la_oenb[10]
*386 la_oenb[110]
*387 la_oenb[111]
*388 la_oenb[112]
*389 la_oenb[113]
*390 la_oenb[114]
*391 la_oenb[115]
*392 la_oenb[116]
*393 la_oenb[117]
*394 la_oenb[118]
*395 la_oenb[119]
*396 la_oenb[11]
*397 la_oenb[120]
*398 la_oenb[121]
*399 la_oenb[122]
*400 la_oenb[123]
*401 la_oenb[124]
*402 la_oenb[125]
*403 la_oenb[126]
*404 la_oenb[127]
*405 la_oenb[12]
*406 la_oenb[13]
*407 la_oenb[14]
*408 la_oenb[15]
*409 la_oenb[16]
*410 la_oenb[17]
*411 la_oenb[18]
*412 la_oenb[19]
*413 la_oenb[1]
*414 la_oenb[20]
*415 la_oenb[21]
*416 la_oenb[22]
*417 la_oenb[23]
*418 la_oenb[24]
*419 la_oenb[25]
*420 la_oenb[26]
*421 la_oenb[27]
*422 la_oenb[28]
*423 la_oenb[29]
*424 la_oenb[2]
*425 la_oenb[30]
*426 la_oenb[31]
*427 la_oenb[32]
*428 la_oenb[33]
*429 la_oenb[34]
*430 la_oenb[35]
*431 la_oenb[36]
*432 la_oenb[37]
*433 la_oenb[38]
*434 la_oenb[39]
*435 la_oenb[3]
*436 la_oenb[40]
*437 la_oenb[41]
*438 la_oenb[42]
*439 la_oenb[43]
*440 la_oenb[44]
*441 la_oenb[45]
*442 la_oenb[46]
*443 la_oenb[47]
*444 la_oenb[48]
*445 la_oenb[49]
*446 la_oenb[4]
*447 la_oenb[50]
*448 la_oenb[51]
*449 la_oenb[52]
*450 la_oenb[53]
*451 la_oenb[54]
*452 la_oenb[55]
*453 la_oenb[56]
*454 la_oenb[57]
*455 la_oenb[58]
*456 la_oenb[59]
*457 la_oenb[5]
*458 la_oenb[60]
*459 la_oenb[61]
*460 la_oenb[62]
*461 la_oenb[63]
*462 la_oenb[64]
*463 la_oenb[65]
*464 la_oenb[66]
*465 la_oenb[67]
*466 la_oenb[68]
*467 la_oenb[69]
*468 la_oenb[6]
*469 la_oenb[70]
*470 la_oenb[71]
*471 la_oenb[72]
*472 la_oenb[73]
*473 la_oenb[74]
*474 la_oenb[75]
*475 la_oenb[76]
*476 la_oenb[77]
*477 la_oenb[78]
*478 la_oenb[79]
*479 la_oenb[7]
*480 la_oenb[80]
*481 la_oenb[81]
*482 la_oenb[82]
*483 la_oenb[83]
*484 la_oenb[84]
*485 la_oenb[85]
*486 la_oenb[86]
*487 la_oenb[87]
*488 la_oenb[88]
*489 la_oenb[89]
*490 la_oenb[8]
*491 la_oenb[90]
*492 la_oenb[91]
*493 la_oenb[92]
*494 la_oenb[93]
*495 la_oenb[94]
*496 la_oenb[95]
*497 la_oenb[96]
*498 la_oenb[97]
*499 la_oenb[98]
*500 la_oenb[99]
*501 la_oenb[9]
*504 wb_clk_i
*505 wb_rst_i
*506 wbs_ack_o
*507 wbs_adr_i[0]
*508 wbs_adr_i[10]
*509 wbs_adr_i[11]
*510 wbs_adr_i[12]
*511 wbs_adr_i[13]
*512 wbs_adr_i[14]
*513 wbs_adr_i[15]
*514 wbs_adr_i[16]
*515 wbs_adr_i[17]
*516 wbs_adr_i[18]
*517 wbs_adr_i[19]
*518 wbs_adr_i[1]
*519 wbs_adr_i[20]
*520 wbs_adr_i[21]
*521 wbs_adr_i[22]
*522 wbs_adr_i[23]
*523 wbs_adr_i[24]
*524 wbs_adr_i[25]
*525 wbs_adr_i[26]
*526 wbs_adr_i[27]
*527 wbs_adr_i[28]
*528 wbs_adr_i[29]
*529 wbs_adr_i[2]
*530 wbs_adr_i[30]
*531 wbs_adr_i[31]
*532 wbs_adr_i[3]
*533 wbs_adr_i[4]
*534 wbs_adr_i[5]
*535 wbs_adr_i[6]
*536 wbs_adr_i[7]
*537 wbs_adr_i[8]
*538 wbs_adr_i[9]
*539 wbs_cyc_i
*540 wbs_dat_i[0]
*541 wbs_dat_i[10]
*542 wbs_dat_i[11]
*543 wbs_dat_i[12]
*544 wbs_dat_i[13]
*545 wbs_dat_i[14]
*546 wbs_dat_i[15]
*547 wbs_dat_i[16]
*548 wbs_dat_i[17]
*549 wbs_dat_i[18]
*550 wbs_dat_i[19]
*551 wbs_dat_i[1]
*552 wbs_dat_i[20]
*553 wbs_dat_i[21]
*554 wbs_dat_i[22]
*555 wbs_dat_i[23]
*556 wbs_dat_i[24]
*557 wbs_dat_i[25]
*558 wbs_dat_i[26]
*559 wbs_dat_i[27]
*560 wbs_dat_i[28]
*561 wbs_dat_i[29]
*562 wbs_dat_i[2]
*563 wbs_dat_i[30]
*564 wbs_dat_i[31]
*565 wbs_dat_i[3]
*566 wbs_dat_i[4]
*567 wbs_dat_i[5]
*568 wbs_dat_i[6]
*569 wbs_dat_i[7]
*570 wbs_dat_i[8]
*571 wbs_dat_i[9]
*572 wbs_dat_o[0]
*573 wbs_dat_o[10]
*574 wbs_dat_o[11]
*575 wbs_dat_o[12]
*576 wbs_dat_o[13]
*577 wbs_dat_o[14]
*578 wbs_dat_o[15]
*579 wbs_dat_o[16]
*580 wbs_dat_o[17]
*581 wbs_dat_o[18]
*582 wbs_dat_o[19]
*583 wbs_dat_o[1]
*584 wbs_dat_o[20]
*585 wbs_dat_o[21]
*586 wbs_dat_o[22]
*587 wbs_dat_o[23]
*588 wbs_dat_o[24]
*589 wbs_dat_o[25]
*590 wbs_dat_o[26]
*591 wbs_dat_o[27]
*592 wbs_dat_o[28]
*593 wbs_dat_o[29]
*594 wbs_dat_o[2]
*595 wbs_dat_o[30]
*596 wbs_dat_o[31]
*597 wbs_dat_o[3]
*598 wbs_dat_o[4]
*599 wbs_dat_o[5]
*600 wbs_dat_o[6]
*601 wbs_dat_o[7]
*602 wbs_dat_o[8]
*603 wbs_dat_o[9]
*604 wbs_sel_i[0]
*605 wbs_sel_i[1]
*606 wbs_sel_i[2]
*607 wbs_sel_i[3]
*608 wbs_stb_i
*609 wbs_we_i
*610 _000_
*611 _001_
*612 _002_
*613 _003_
*614 _004_
*615 _005_
*616 _006_
*617 _007_
*618 _008_
*619 _009_
*620 _010_
*621 _011_
*622 _012_
*623 _013_
*624 _014_
*625 _015_
*626 _016_
*627 _017_
*628 _018_
*629 _019_
*630 _020_
*631 _021_
*632 _022_
*633 _023_
*634 _024_
*635 _025_
*636 _026_
*637 _027_
*638 _028_
*639 _029_
*640 _030_
*641 _031_
*642 _032_
*643 _033_
*644 _034_
*645 _035_
*646 _036_
*647 _037_
*648 _038_
*649 _039_
*650 _040_
*651 _041_
*652 _042_
*653 _043_
*654 _044_
*655 _045_
*656 _046_
*657 clknet_0_dff_last_analogFIGARO\.clk
*658 clknet_0_wb_clk_i
*659 clknet_1_0_0_dff_last_analogFIGARO\.clk
*660 clknet_1_0_1_dff_last_analogFIGARO\.clk
*661 clknet_1_0__leaf_wb_clk_i
*662 clknet_1_1_0_dff_last_analogFIGARO\.clk
*663 clknet_1_1_1_dff_last_analogFIGARO\.clk
*664 clknet_1_1__leaf_wb_clk_i
*665 clknet_2_0_0_dff_last_analogFIGARO\.clk
*666 clknet_2_0_1_dff_last_analogFIGARO\.clk
*667 clknet_2_1_0_dff_last_analogFIGARO\.clk
*668 clknet_2_1_1_dff_last_analogFIGARO\.clk
*669 clknet_2_2_0_dff_last_analogFIGARO\.clk
*670 clknet_2_2_1_dff_last_analogFIGARO\.clk
*671 clknet_2_3_0_dff_last_analogFIGARO\.clk
*672 clknet_2_3_1_dff_last_analogFIGARO\.clk
*673 dff_last_analogFIGARO\.D
*674 dff_last_analogFIGARO\.Q
*675 dff_last_analogFIGARO\.clk
*676 dff_last_analogRO\.D
*677 dff_last_analogRO\.Q
*678 dff_last_sampledFIGARO\.D
*679 dff_last_sampledFIGARO\.Q
*680 dff_last_sampledRO\.D
*681 dff_last_sampledRO\.Q
*682 entropy_FIGARO\.genblk1\[1\]\.FIGARO_gen\.firo\.fXor\[1\]
*683 entropy_FIGARO\.genblk1\[1\]\.FIGARO_gen\.firo\.fXor\[2\]
*684 entropy_FIGARO\.genblk1\[1\]\.FIGARO_gen\.firo\.fXor\[3\]
*685 entropy_FIGARO\.genblk1\[1\]\.FIGARO_gen\.firo\.fXor\[4\]
*686 entropy_FIGARO\.genblk1\[1\]\.FIGARO_gen\.firo\.fXor\[5\]
*687 entropy_FIGARO\.genblk1\[1\]\.FIGARO_gen\.firo\.f\[0\]
*688 entropy_FIGARO\.genblk1\[1\]\.FIGARO_gen\.firo\.f\[10\]
*689 entropy_FIGARO\.genblk1\[1\]\.FIGARO_gen\.firo\.f\[11\]
*690 entropy_FIGARO\.genblk1\[1\]\.FIGARO_gen\.firo\.f\[12\]
*691 entropy_FIGARO\.genblk1\[1\]\.FIGARO_gen\.firo\.f\[13\]
*692 entropy_FIGARO\.genblk1\[1\]\.FIGARO_gen\.firo\.f\[14\]
*693 entropy_FIGARO\.genblk1\[1\]\.FIGARO_gen\.firo\.f\[15\]
*694 entropy_FIGARO\.genblk1\[1\]\.FIGARO_gen\.firo\.f\[1\]
*695 entropy_FIGARO\.genblk1\[1\]\.FIGARO_gen\.firo\.f\[2\]
*696 entropy_FIGARO\.genblk1\[1\]\.FIGARO_gen\.firo\.f\[3\]
*697 entropy_FIGARO\.genblk1\[1\]\.FIGARO_gen\.firo\.f\[4\]
*698 entropy_FIGARO\.genblk1\[1\]\.FIGARO_gen\.firo\.f\[5\]
*699 entropy_FIGARO\.genblk1\[1\]\.FIGARO_gen\.firo\.f\[6\]
*700 entropy_FIGARO\.genblk1\[1\]\.FIGARO_gen\.firo\.f\[7\]
*701 entropy_FIGARO\.genblk1\[1\]\.FIGARO_gen\.firo\.f\[8\]
*702 entropy_FIGARO\.genblk1\[1\]\.FIGARO_gen\.firo\.f\[9\]
*703 entropy_FIGARO\.genblk1\[1\]\.FIGARO_gen\.garo\.f\[0\]
*704 entropy_FIGARO\.genblk1\[1\]\.FIGARO_gen\.garo\.f\[10\]
*705 entropy_FIGARO\.genblk1\[1\]\.FIGARO_gen\.garo\.f\[11\]
*706 entropy_FIGARO\.genblk1\[1\]\.FIGARO_gen\.garo\.f\[12\]
*707 entropy_FIGARO\.genblk1\[1\]\.FIGARO_gen\.garo\.f\[13\]
*708 entropy_FIGARO\.genblk1\[1\]\.FIGARO_gen\.garo\.f\[14\]
*709 entropy_FIGARO\.genblk1\[1\]\.FIGARO_gen\.garo\.f\[15\]
*710 entropy_FIGARO\.genblk1\[1\]\.FIGARO_gen\.garo\.f\[16\]
*711 entropy_FIGARO\.genblk1\[1\]\.FIGARO_gen\.garo\.f\[17\]
*712 entropy_FIGARO\.genblk1\[1\]\.FIGARO_gen\.garo\.f\[18\]
*713 entropy_FIGARO\.genblk1\[1\]\.FIGARO_gen\.garo\.f\[19\]
*714 entropy_FIGARO\.genblk1\[1\]\.FIGARO_gen\.garo\.f\[1\]
*715 entropy_FIGARO\.genblk1\[1\]\.FIGARO_gen\.garo\.f\[20\]
*716 entropy_FIGARO\.genblk1\[1\]\.FIGARO_gen\.garo\.f\[2\]
*717 entropy_FIGARO\.genblk1\[1\]\.FIGARO_gen\.garo\.f\[3\]
*718 entropy_FIGARO\.genblk1\[1\]\.FIGARO_gen\.garo\.f\[4\]
*719 entropy_FIGARO\.genblk1\[1\]\.FIGARO_gen\.garo\.f\[5\]
*720 entropy_FIGARO\.genblk1\[1\]\.FIGARO_gen\.garo\.f\[6\]
*721 entropy_FIGARO\.genblk1\[1\]\.FIGARO_gen\.garo\.f\[7\]
*722 entropy_FIGARO\.genblk1\[1\]\.FIGARO_gen\.garo\.f\[8\]
*723 entropy_FIGARO\.genblk1\[1\]\.FIGARO_gen\.garo\.f\[9\]
*724 entropy_FIGARO\.genblk1\[1\]\.FIGARO_gen\.o_figaro
*725 entropy_FIGARO\.genblk1\[1\]\.dff_gen\.Q
*726 entropy_FIGARO\.genblk1\[2\]\.FIGARO_gen\.firo\.fXor\[1\]
*727 entropy_FIGARO\.genblk1\[2\]\.FIGARO_gen\.firo\.fXor\[2\]
*728 entropy_FIGARO\.genblk1\[2\]\.FIGARO_gen\.firo\.fXor\[3\]
*729 entropy_FIGARO\.genblk1\[2\]\.FIGARO_gen\.firo\.fXor\[4\]
*730 entropy_FIGARO\.genblk1\[2\]\.FIGARO_gen\.firo\.fXor\[5\]
*731 entropy_FIGARO\.genblk1\[2\]\.FIGARO_gen\.firo\.f\[0\]
*732 entropy_FIGARO\.genblk1\[2\]\.FIGARO_gen\.firo\.f\[10\]
*733 entropy_FIGARO\.genblk1\[2\]\.FIGARO_gen\.firo\.f\[11\]
*734 entropy_FIGARO\.genblk1\[2\]\.FIGARO_gen\.firo\.f\[12\]
*735 entropy_FIGARO\.genblk1\[2\]\.FIGARO_gen\.firo\.f\[13\]
*736 entropy_FIGARO\.genblk1\[2\]\.FIGARO_gen\.firo\.f\[14\]
*737 entropy_FIGARO\.genblk1\[2\]\.FIGARO_gen\.firo\.f\[15\]
*738 entropy_FIGARO\.genblk1\[2\]\.FIGARO_gen\.firo\.f\[1\]
*739 entropy_FIGARO\.genblk1\[2\]\.FIGARO_gen\.firo\.f\[2\]
*740 entropy_FIGARO\.genblk1\[2\]\.FIGARO_gen\.firo\.f\[3\]
*741 entropy_FIGARO\.genblk1\[2\]\.FIGARO_gen\.firo\.f\[4\]
*742 entropy_FIGARO\.genblk1\[2\]\.FIGARO_gen\.firo\.f\[5\]
*743 entropy_FIGARO\.genblk1\[2\]\.FIGARO_gen\.firo\.f\[6\]
*744 entropy_FIGARO\.genblk1\[2\]\.FIGARO_gen\.firo\.f\[7\]
*745 entropy_FIGARO\.genblk1\[2\]\.FIGARO_gen\.firo\.f\[8\]
*746 entropy_FIGARO\.genblk1\[2\]\.FIGARO_gen\.firo\.f\[9\]
*747 entropy_FIGARO\.genblk1\[2\]\.FIGARO_gen\.garo\.f\[0\]
*748 entropy_FIGARO\.genblk1\[2\]\.FIGARO_gen\.garo\.f\[10\]
*749 entropy_FIGARO\.genblk1\[2\]\.FIGARO_gen\.garo\.f\[11\]
*750 entropy_FIGARO\.genblk1\[2\]\.FIGARO_gen\.garo\.f\[12\]
*751 entropy_FIGARO\.genblk1\[2\]\.FIGARO_gen\.garo\.f\[13\]
*752 entropy_FIGARO\.genblk1\[2\]\.FIGARO_gen\.garo\.f\[14\]
*753 entropy_FIGARO\.genblk1\[2\]\.FIGARO_gen\.garo\.f\[15\]
*754 entropy_FIGARO\.genblk1\[2\]\.FIGARO_gen\.garo\.f\[16\]
*755 entropy_FIGARO\.genblk1\[2\]\.FIGARO_gen\.garo\.f\[17\]
*756 entropy_FIGARO\.genblk1\[2\]\.FIGARO_gen\.garo\.f\[18\]
*757 entropy_FIGARO\.genblk1\[2\]\.FIGARO_gen\.garo\.f\[19\]
*758 entropy_FIGARO\.genblk1\[2\]\.FIGARO_gen\.garo\.f\[1\]
*759 entropy_FIGARO\.genblk1\[2\]\.FIGARO_gen\.garo\.f\[20\]
*760 entropy_FIGARO\.genblk1\[2\]\.FIGARO_gen\.garo\.f\[2\]
*761 entropy_FIGARO\.genblk1\[2\]\.FIGARO_gen\.garo\.f\[3\]
*762 entropy_FIGARO\.genblk1\[2\]\.FIGARO_gen\.garo\.f\[4\]
*763 entropy_FIGARO\.genblk1\[2\]\.FIGARO_gen\.garo\.f\[5\]
*764 entropy_FIGARO\.genblk1\[2\]\.FIGARO_gen\.garo\.f\[6\]
*765 entropy_FIGARO\.genblk1\[2\]\.FIGARO_gen\.garo\.f\[7\]
*766 entropy_FIGARO\.genblk1\[2\]\.FIGARO_gen\.garo\.f\[8\]
*767 entropy_FIGARO\.genblk1\[2\]\.FIGARO_gen\.garo\.f\[9\]
*768 entropy_FIGARO\.genblk1\[2\]\.FIGARO_gen\.o_figaro
*769 entropy_FIGARO\.genblk1\[2\]\.dff_gen\.Q
*770 entropy_FIGARO\.genblk1\[3\]\.FIGARO_gen\.firo\.fXor\[1\]
*771 entropy_FIGARO\.genblk1\[3\]\.FIGARO_gen\.firo\.fXor\[2\]
*772 entropy_FIGARO\.genblk1\[3\]\.FIGARO_gen\.firo\.fXor\[3\]
*773 entropy_FIGARO\.genblk1\[3\]\.FIGARO_gen\.firo\.fXor\[4\]
*774 entropy_FIGARO\.genblk1\[3\]\.FIGARO_gen\.firo\.fXor\[5\]
*775 entropy_FIGARO\.genblk1\[3\]\.FIGARO_gen\.firo\.f\[0\]
*776 entropy_FIGARO\.genblk1\[3\]\.FIGARO_gen\.firo\.f\[10\]
*777 entropy_FIGARO\.genblk1\[3\]\.FIGARO_gen\.firo\.f\[11\]
*778 entropy_FIGARO\.genblk1\[3\]\.FIGARO_gen\.firo\.f\[12\]
*779 entropy_FIGARO\.genblk1\[3\]\.FIGARO_gen\.firo\.f\[13\]
*780 entropy_FIGARO\.genblk1\[3\]\.FIGARO_gen\.firo\.f\[14\]
*781 entropy_FIGARO\.genblk1\[3\]\.FIGARO_gen\.firo\.f\[15\]
*782 entropy_FIGARO\.genblk1\[3\]\.FIGARO_gen\.firo\.f\[1\]
*783 entropy_FIGARO\.genblk1\[3\]\.FIGARO_gen\.firo\.f\[2\]
*784 entropy_FIGARO\.genblk1\[3\]\.FIGARO_gen\.firo\.f\[3\]
*785 entropy_FIGARO\.genblk1\[3\]\.FIGARO_gen\.firo\.f\[4\]
*786 entropy_FIGARO\.genblk1\[3\]\.FIGARO_gen\.firo\.f\[5\]
*787 entropy_FIGARO\.genblk1\[3\]\.FIGARO_gen\.firo\.f\[6\]
*788 entropy_FIGARO\.genblk1\[3\]\.FIGARO_gen\.firo\.f\[7\]
*789 entropy_FIGARO\.genblk1\[3\]\.FIGARO_gen\.firo\.f\[8\]
*790 entropy_FIGARO\.genblk1\[3\]\.FIGARO_gen\.firo\.f\[9\]
*791 entropy_FIGARO\.genblk1\[3\]\.FIGARO_gen\.garo\.f\[0\]
*792 entropy_FIGARO\.genblk1\[3\]\.FIGARO_gen\.garo\.f\[10\]
*793 entropy_FIGARO\.genblk1\[3\]\.FIGARO_gen\.garo\.f\[11\]
*794 entropy_FIGARO\.genblk1\[3\]\.FIGARO_gen\.garo\.f\[12\]
*795 entropy_FIGARO\.genblk1\[3\]\.FIGARO_gen\.garo\.f\[13\]
*796 entropy_FIGARO\.genblk1\[3\]\.FIGARO_gen\.garo\.f\[14\]
*797 entropy_FIGARO\.genblk1\[3\]\.FIGARO_gen\.garo\.f\[15\]
*798 entropy_FIGARO\.genblk1\[3\]\.FIGARO_gen\.garo\.f\[16\]
*799 entropy_FIGARO\.genblk1\[3\]\.FIGARO_gen\.garo\.f\[17\]
*800 entropy_FIGARO\.genblk1\[3\]\.FIGARO_gen\.garo\.f\[18\]
*801 entropy_FIGARO\.genblk1\[3\]\.FIGARO_gen\.garo\.f\[19\]
*802 entropy_FIGARO\.genblk1\[3\]\.FIGARO_gen\.garo\.f\[1\]
*803 entropy_FIGARO\.genblk1\[3\]\.FIGARO_gen\.garo\.f\[20\]
*804 entropy_FIGARO\.genblk1\[3\]\.FIGARO_gen\.garo\.f\[2\]
*805 entropy_FIGARO\.genblk1\[3\]\.FIGARO_gen\.garo\.f\[3\]
*806 entropy_FIGARO\.genblk1\[3\]\.FIGARO_gen\.garo\.f\[4\]
*807 entropy_FIGARO\.genblk1\[3\]\.FIGARO_gen\.garo\.f\[5\]
*808 entropy_FIGARO\.genblk1\[3\]\.FIGARO_gen\.garo\.f\[6\]
*809 entropy_FIGARO\.genblk1\[3\]\.FIGARO_gen\.garo\.f\[7\]
*810 entropy_FIGARO\.genblk1\[3\]\.FIGARO_gen\.garo\.f\[8\]
*811 entropy_FIGARO\.genblk1\[3\]\.FIGARO_gen\.garo\.f\[9\]
*812 entropy_FIGARO\.genblk1\[3\]\.FIGARO_gen\.o_figaro
*813 entropy_FIGARO\.genblk1\[3\]\.dff_gen\.Q
*814 entropy_FIGARO\.xor_stage\.Xor_out\[1\]
*815 entropy_FIGARO\.xor_stage_analog\.Xor_out\[1\]
*816 entropy_RO\.genblk1\[10\]\.RO_gen\.del\[0\]
*817 entropy_RO\.genblk1\[10\]\.RO_gen\.del\[10\]
*818 entropy_RO\.genblk1\[10\]\.RO_gen\.del\[11\]
*819 entropy_RO\.genblk1\[10\]\.RO_gen\.del\[12\]
*820 entropy_RO\.genblk1\[10\]\.RO_gen\.del\[13\]
*821 entropy_RO\.genblk1\[10\]\.RO_gen\.del\[14\]
*822 entropy_RO\.genblk1\[10\]\.RO_gen\.del\[1\]
*823 entropy_RO\.genblk1\[10\]\.RO_gen\.del\[2\]
*824 entropy_RO\.genblk1\[10\]\.RO_gen\.del\[3\]
*825 entropy_RO\.genblk1\[10\]\.RO_gen\.del\[4\]
*826 entropy_RO\.genblk1\[10\]\.RO_gen\.del\[5\]
*827 entropy_RO\.genblk1\[10\]\.RO_gen\.del\[6\]
*828 entropy_RO\.genblk1\[10\]\.RO_gen\.del\[7\]
*829 entropy_RO\.genblk1\[10\]\.RO_gen\.del\[8\]
*830 entropy_RO\.genblk1\[10\]\.RO_gen\.del\[9\]
*831 entropy_RO\.genblk1\[10\]\.dff_gen\.Q
*832 entropy_RO\.genblk1\[11\]\.RO_gen\.del\[0\]
*833 entropy_RO\.genblk1\[11\]\.RO_gen\.del\[10\]
*834 entropy_RO\.genblk1\[11\]\.RO_gen\.del\[11\]
*835 entropy_RO\.genblk1\[11\]\.RO_gen\.del\[12\]
*836 entropy_RO\.genblk1\[11\]\.RO_gen\.del\[13\]
*837 entropy_RO\.genblk1\[11\]\.RO_gen\.del\[14\]
*838 entropy_RO\.genblk1\[11\]\.RO_gen\.del\[1\]
*839 entropy_RO\.genblk1\[11\]\.RO_gen\.del\[2\]
*840 entropy_RO\.genblk1\[11\]\.RO_gen\.del\[3\]
*841 entropy_RO\.genblk1\[11\]\.RO_gen\.del\[4\]
*842 entropy_RO\.genblk1\[11\]\.RO_gen\.del\[5\]
*843 entropy_RO\.genblk1\[11\]\.RO_gen\.del\[6\]
*844 entropy_RO\.genblk1\[11\]\.RO_gen\.del\[7\]
*845 entropy_RO\.genblk1\[11\]\.RO_gen\.del\[8\]
*846 entropy_RO\.genblk1\[11\]\.RO_gen\.del\[9\]
*847 entropy_RO\.genblk1\[11\]\.dff_gen\.Q
*848 entropy_RO\.genblk1\[12\]\.RO_gen\.del\[0\]
*849 entropy_RO\.genblk1\[12\]\.RO_gen\.del\[10\]
*850 entropy_RO\.genblk1\[12\]\.RO_gen\.del\[11\]
*851 entropy_RO\.genblk1\[12\]\.RO_gen\.del\[12\]
*852 entropy_RO\.genblk1\[12\]\.RO_gen\.del\[13\]
*853 entropy_RO\.genblk1\[12\]\.RO_gen\.del\[14\]
*854 entropy_RO\.genblk1\[12\]\.RO_gen\.del\[1\]
*855 entropy_RO\.genblk1\[12\]\.RO_gen\.del\[2\]
*856 entropy_RO\.genblk1\[12\]\.RO_gen\.del\[3\]
*857 entropy_RO\.genblk1\[12\]\.RO_gen\.del\[4\]
*858 entropy_RO\.genblk1\[12\]\.RO_gen\.del\[5\]
*859 entropy_RO\.genblk1\[12\]\.RO_gen\.del\[6\]
*860 entropy_RO\.genblk1\[12\]\.RO_gen\.del\[7\]
*861 entropy_RO\.genblk1\[12\]\.RO_gen\.del\[8\]
*862 entropy_RO\.genblk1\[12\]\.RO_gen\.del\[9\]
*863 entropy_RO\.genblk1\[12\]\.dff_gen\.Q
*864 entropy_RO\.genblk1\[13\]\.RO_gen\.del\[0\]
*865 entropy_RO\.genblk1\[13\]\.RO_gen\.del\[10\]
*866 entropy_RO\.genblk1\[13\]\.RO_gen\.del\[11\]
*867 entropy_RO\.genblk1\[13\]\.RO_gen\.del\[12\]
*868 entropy_RO\.genblk1\[13\]\.RO_gen\.del\[13\]
*869 entropy_RO\.genblk1\[13\]\.RO_gen\.del\[14\]
*870 entropy_RO\.genblk1\[13\]\.RO_gen\.del\[1\]
*871 entropy_RO\.genblk1\[13\]\.RO_gen\.del\[2\]
*872 entropy_RO\.genblk1\[13\]\.RO_gen\.del\[3\]
*873 entropy_RO\.genblk1\[13\]\.RO_gen\.del\[4\]
*874 entropy_RO\.genblk1\[13\]\.RO_gen\.del\[5\]
*875 entropy_RO\.genblk1\[13\]\.RO_gen\.del\[6\]
*876 entropy_RO\.genblk1\[13\]\.RO_gen\.del\[7\]
*877 entropy_RO\.genblk1\[13\]\.RO_gen\.del\[8\]
*878 entropy_RO\.genblk1\[13\]\.RO_gen\.del\[9\]
*879 entropy_RO\.genblk1\[13\]\.dff_gen\.Q
*880 entropy_RO\.genblk1\[14\]\.RO_gen\.del\[0\]
*881 entropy_RO\.genblk1\[14\]\.RO_gen\.del\[10\]
*882 entropy_RO\.genblk1\[14\]\.RO_gen\.del\[11\]
*883 entropy_RO\.genblk1\[14\]\.RO_gen\.del\[12\]
*884 entropy_RO\.genblk1\[14\]\.RO_gen\.del\[13\]
*885 entropy_RO\.genblk1\[14\]\.RO_gen\.del\[14\]
*886 entropy_RO\.genblk1\[14\]\.RO_gen\.del\[1\]
*887 entropy_RO\.genblk1\[14\]\.RO_gen\.del\[2\]
*888 entropy_RO\.genblk1\[14\]\.RO_gen\.del\[3\]
*889 entropy_RO\.genblk1\[14\]\.RO_gen\.del\[4\]
*890 entropy_RO\.genblk1\[14\]\.RO_gen\.del\[5\]
*891 entropy_RO\.genblk1\[14\]\.RO_gen\.del\[6\]
*892 entropy_RO\.genblk1\[14\]\.RO_gen\.del\[7\]
*893 entropy_RO\.genblk1\[14\]\.RO_gen\.del\[8\]
*894 entropy_RO\.genblk1\[14\]\.RO_gen\.del\[9\]
*895 entropy_RO\.genblk1\[14\]\.dff_gen\.Q
*896 entropy_RO\.genblk1\[15\]\.RO_gen\.del\[0\]
*897 entropy_RO\.genblk1\[15\]\.RO_gen\.del\[10\]
*898 entropy_RO\.genblk1\[15\]\.RO_gen\.del\[11\]
*899 entropy_RO\.genblk1\[15\]\.RO_gen\.del\[12\]
*900 entropy_RO\.genblk1\[15\]\.RO_gen\.del\[13\]
*901 entropy_RO\.genblk1\[15\]\.RO_gen\.del\[14\]
*902 entropy_RO\.genblk1\[15\]\.RO_gen\.del\[1\]
*903 entropy_RO\.genblk1\[15\]\.RO_gen\.del\[2\]
*904 entropy_RO\.genblk1\[15\]\.RO_gen\.del\[3\]
*905 entropy_RO\.genblk1\[15\]\.RO_gen\.del\[4\]
*906 entropy_RO\.genblk1\[15\]\.RO_gen\.del\[5\]
*907 entropy_RO\.genblk1\[15\]\.RO_gen\.del\[6\]
*908 entropy_RO\.genblk1\[15\]\.RO_gen\.del\[7\]
*909 entropy_RO\.genblk1\[15\]\.RO_gen\.del\[8\]
*910 entropy_RO\.genblk1\[15\]\.RO_gen\.del\[9\]
*911 entropy_RO\.genblk1\[15\]\.dff_gen\.Q
*912 entropy_RO\.genblk1\[16\]\.RO_gen\.del\[0\]
*913 entropy_RO\.genblk1\[16\]\.RO_gen\.del\[10\]
*914 entropy_RO\.genblk1\[16\]\.RO_gen\.del\[11\]
*915 entropy_RO\.genblk1\[16\]\.RO_gen\.del\[12\]
*916 entropy_RO\.genblk1\[16\]\.RO_gen\.del\[13\]
*917 entropy_RO\.genblk1\[16\]\.RO_gen\.del\[14\]
*918 entropy_RO\.genblk1\[16\]\.RO_gen\.del\[1\]
*919 entropy_RO\.genblk1\[16\]\.RO_gen\.del\[2\]
*920 entropy_RO\.genblk1\[16\]\.RO_gen\.del\[3\]
*921 entropy_RO\.genblk1\[16\]\.RO_gen\.del\[4\]
*922 entropy_RO\.genblk1\[16\]\.RO_gen\.del\[5\]
*923 entropy_RO\.genblk1\[16\]\.RO_gen\.del\[6\]
*924 entropy_RO\.genblk1\[16\]\.RO_gen\.del\[7\]
*925 entropy_RO\.genblk1\[16\]\.RO_gen\.del\[8\]
*926 entropy_RO\.genblk1\[16\]\.RO_gen\.del\[9\]
*927 entropy_RO\.genblk1\[16\]\.dff_gen\.Q
*928 entropy_RO\.genblk1\[17\]\.RO_gen\.del\[0\]
*929 entropy_RO\.genblk1\[17\]\.RO_gen\.del\[10\]
*930 entropy_RO\.genblk1\[17\]\.RO_gen\.del\[11\]
*931 entropy_RO\.genblk1\[17\]\.RO_gen\.del\[12\]
*932 entropy_RO\.genblk1\[17\]\.RO_gen\.del\[13\]
*933 entropy_RO\.genblk1\[17\]\.RO_gen\.del\[14\]
*934 entropy_RO\.genblk1\[17\]\.RO_gen\.del\[1\]
*935 entropy_RO\.genblk1\[17\]\.RO_gen\.del\[2\]
*936 entropy_RO\.genblk1\[17\]\.RO_gen\.del\[3\]
*937 entropy_RO\.genblk1\[17\]\.RO_gen\.del\[4\]
*938 entropy_RO\.genblk1\[17\]\.RO_gen\.del\[5\]
*939 entropy_RO\.genblk1\[17\]\.RO_gen\.del\[6\]
*940 entropy_RO\.genblk1\[17\]\.RO_gen\.del\[7\]
*941 entropy_RO\.genblk1\[17\]\.RO_gen\.del\[8\]
*942 entropy_RO\.genblk1\[17\]\.RO_gen\.del\[9\]
*943 entropy_RO\.genblk1\[17\]\.dff_gen\.Q
*944 entropy_RO\.genblk1\[18\]\.RO_gen\.del\[0\]
*945 entropy_RO\.genblk1\[18\]\.RO_gen\.del\[10\]
*946 entropy_RO\.genblk1\[18\]\.RO_gen\.del\[11\]
*947 entropy_RO\.genblk1\[18\]\.RO_gen\.del\[12\]
*948 entropy_RO\.genblk1\[18\]\.RO_gen\.del\[13\]
*949 entropy_RO\.genblk1\[18\]\.RO_gen\.del\[14\]
*950 entropy_RO\.genblk1\[18\]\.RO_gen\.del\[1\]
*951 entropy_RO\.genblk1\[18\]\.RO_gen\.del\[2\]
*952 entropy_RO\.genblk1\[18\]\.RO_gen\.del\[3\]
*953 entropy_RO\.genblk1\[18\]\.RO_gen\.del\[4\]
*954 entropy_RO\.genblk1\[18\]\.RO_gen\.del\[5\]
*955 entropy_RO\.genblk1\[18\]\.RO_gen\.del\[6\]
*956 entropy_RO\.genblk1\[18\]\.RO_gen\.del\[7\]
*957 entropy_RO\.genblk1\[18\]\.RO_gen\.del\[8\]
*958 entropy_RO\.genblk1\[18\]\.RO_gen\.del\[9\]
*959 entropy_RO\.genblk1\[18\]\.dff_gen\.Q
*960 entropy_RO\.genblk1\[19\]\.RO_gen\.del\[0\]
*961 entropy_RO\.genblk1\[19\]\.RO_gen\.del\[10\]
*962 entropy_RO\.genblk1\[19\]\.RO_gen\.del\[11\]
*963 entropy_RO\.genblk1\[19\]\.RO_gen\.del\[12\]
*964 entropy_RO\.genblk1\[19\]\.RO_gen\.del\[13\]
*965 entropy_RO\.genblk1\[19\]\.RO_gen\.del\[14\]
*966 entropy_RO\.genblk1\[19\]\.RO_gen\.del\[1\]
*967 entropy_RO\.genblk1\[19\]\.RO_gen\.del\[2\]
*968 entropy_RO\.genblk1\[19\]\.RO_gen\.del\[3\]
*969 entropy_RO\.genblk1\[19\]\.RO_gen\.del\[4\]
*970 entropy_RO\.genblk1\[19\]\.RO_gen\.del\[5\]
*971 entropy_RO\.genblk1\[19\]\.RO_gen\.del\[6\]
*972 entropy_RO\.genblk1\[19\]\.RO_gen\.del\[7\]
*973 entropy_RO\.genblk1\[19\]\.RO_gen\.del\[8\]
*974 entropy_RO\.genblk1\[19\]\.RO_gen\.del\[9\]
*975 entropy_RO\.genblk1\[19\]\.dff_gen\.Q
*976 entropy_RO\.genblk1\[1\]\.RO_gen\.del\[0\]
*977 entropy_RO\.genblk1\[1\]\.RO_gen\.del\[10\]
*978 entropy_RO\.genblk1\[1\]\.RO_gen\.del\[11\]
*979 entropy_RO\.genblk1\[1\]\.RO_gen\.del\[12\]
*980 entropy_RO\.genblk1\[1\]\.RO_gen\.del\[13\]
*981 entropy_RO\.genblk1\[1\]\.RO_gen\.del\[14\]
*982 entropy_RO\.genblk1\[1\]\.RO_gen\.del\[1\]
*983 entropy_RO\.genblk1\[1\]\.RO_gen\.del\[2\]
*984 entropy_RO\.genblk1\[1\]\.RO_gen\.del\[3\]
*985 entropy_RO\.genblk1\[1\]\.RO_gen\.del\[4\]
*986 entropy_RO\.genblk1\[1\]\.RO_gen\.del\[5\]
*987 entropy_RO\.genblk1\[1\]\.RO_gen\.del\[6\]
*988 entropy_RO\.genblk1\[1\]\.RO_gen\.del\[7\]
*989 entropy_RO\.genblk1\[1\]\.RO_gen\.del\[8\]
*990 entropy_RO\.genblk1\[1\]\.RO_gen\.del\[9\]
*991 entropy_RO\.genblk1\[1\]\.dff_gen\.Q
*992 entropy_RO\.genblk1\[20\]\.RO_gen\.del\[0\]
*993 entropy_RO\.genblk1\[20\]\.RO_gen\.del\[10\]
*994 entropy_RO\.genblk1\[20\]\.RO_gen\.del\[11\]
*995 entropy_RO\.genblk1\[20\]\.RO_gen\.del\[12\]
*996 entropy_RO\.genblk1\[20\]\.RO_gen\.del\[13\]
*997 entropy_RO\.genblk1\[20\]\.RO_gen\.del\[14\]
*998 entropy_RO\.genblk1\[20\]\.RO_gen\.del\[1\]
*999 entropy_RO\.genblk1\[20\]\.RO_gen\.del\[2\]
*1000 entropy_RO\.genblk1\[20\]\.RO_gen\.del\[3\]